                                  MODFLOW-NWT-SWR1 
      U.S. GEOLOGICAL SURVEY MODULAR FINITE-DIFFERENCE GROUNDWATER-FLOW MODEL
                             VERSION 1.1.4 4/01/2018
                    BASED ON MODFLOW-2005 VERSION 1.12.00 02/03/2017

 LIST FILE: SIMCOPIAPO.list
                         UNIT    2

 OPENING SIMCOPIAPO.dis
 FILE TYPE:DIS   UNIT   11   STATUS:OLD    
 FORMAT:FORMATTED              ACCESS:SEQUENTIAL          

 OPENING SIMCOPIAPO.bas
 FILE TYPE:BAS6   UNIT   13   STATUS:OLD    
 FORMAT:FORMATTED              ACCESS:SEQUENTIAL          

 OPENING SIMCOPIAPO.upw
 FILE TYPE:UPW   UNIT   31   STATUS:OLD    
 FORMAT:FORMATTED              ACCESS:SEQUENTIAL          

 OPENING SIMCOPIAPO.drn
 FILE TYPE:DRN   UNIT   21   STATUS:OLD    
 FORMAT:FORMATTED              ACCESS:SEQUENTIAL          

 OPENING SIMCOPIAPO.rch
 FILE TYPE:RCH   UNIT   19   STATUS:OLD    
 FORMAT:FORMATTED              ACCESS:SEQUENTIAL          

 OPENING SIMCOPIAPO.wel
 FILE TYPE:WEL   UNIT   20   STATUS:OLD    
 FORMAT:FORMATTED              ACCESS:SEQUENTIAL          

 OPENING SIMCOPIAPO.evt
 FILE TYPE:EVT   UNIT   22   STATUS:OLD    
 FORMAT:FORMATTED              ACCESS:SEQUENTIAL          

 OPENING SIMCOPIAPO.nwt
 FILE TYPE:NWT   UNIT   32   STATUS:OLD    
 FORMAT:FORMATTED              ACCESS:SEQUENTIAL          

 OPENING SIMCOPIAPO.oc
 FILE TYPE:OC   UNIT   14   STATUS:OLD    
 FORMAT:FORMATTED              ACCESS:SEQUENTIAL          

 OPENING SIMCOPIAPO.hds
 FILE TYPE:DATA(BINARY)   UNIT   51   STATUS:REPLACE
 FORMAT:UNFORMATTED            ACCESS:STREAM              

 BAS -- BASIC PACKAGE, VERSION 1.1.4, 4/01/2018 INPUT READ FROM UNIT   13

 MODFLOW was compiled using mixed precision
 Precision of REAL variables:           6
 Precision of DOUBLE PRECISION variables:          15

 DISCRETIZATION INPUT DATA READ FROM UNIT   11
 # DIS package for  MODFLOW-NWT, generated by Flopy.
    1 LAYERS       520 ROWS       510 COLUMNS
  100 STRESS PERIOD(S) IN SIMULATION
 MODEL TIME UNIT IS DAYS
 MODEL LENGTH UNIT IS METERS
  Confining bed flag for each layer:
   0



                               DELR
 READING ON UNIT   11 WITH FORMAT: (510E15.6)          



                               DELC
 READING ON UNIT   11 WITH FORMAT: (520E15.6)          



           TOP ELEVATION OF LAYER 1
 READING ON UNIT   11 WITH FORMAT: (510E15.6)          



             MODEL LAYER BOTTOM EL. FOR LAYER   1
 READING ON UNIT   11 WITH FORMAT: (510E15.6)          


 STRESS PERIOD     LENGTH       TIME STEPS     MULTIPLIER FOR DELT    SS FLAG
 ----------------------------------------------------------------------------
        1         30.40000         10                    1.000         TR
        2         30.40000         10                    1.000         TR
        3         30.40000         10                    1.000         TR
        4         30.40000         10                    1.000         TR
        5         30.40000         10                    1.000         TR
        6         30.40000         10                    1.000         TR
        7         30.40000         10                    1.000         TR
        8         30.40000         10                    1.000         TR
        9         30.40000         10                    1.000         TR
       10         30.40000         10                    1.000         TR
       11         30.40000         10                    1.000         TR
       12         30.40000         10                    1.000         TR
       13         30.40000         10                    1.000         TR
       14         30.40000         10                    1.000         TR
       15         30.40000         10                    1.000         TR
       16         30.40000         10                    1.000         TR
       17         30.40000         10                    1.000         TR
       18         30.40000         10                    1.000         TR
       19         30.40000         10                    1.000         TR
       20         30.40000         10                    1.000         TR
       21         30.40000         10                    1.000         TR
       22         30.40000         10                    1.000         TR
       23         30.40000         10                    1.000         TR
       24         30.40000         10                    1.000         TR
       25         30.40000         10                    1.000         TR
       26         30.40000         10                    1.000         TR
       27         30.40000         10                    1.000         TR
       28         30.40000         10                    1.000         TR
       29         30.40000         10                    1.000         TR
       30         30.40000         10                    1.000         TR
       31         30.40000         10                    1.000         TR
       32         30.40000         10                    1.000         TR
       33         30.40000         10                    1.000         TR
       34         30.40000         10                    1.000         TR
       35         30.40000         10                    1.000         TR
       36         30.40000         10                    1.000         TR
       37         30.40000         10                    1.000         TR
       38         30.40000         10                    1.000         TR
       39         30.40000         10                    1.000         TR
       40         30.40000         10                    1.000         TR
       41         30.40000         10                    1.000         TR
       42         30.40000         10                    1.000         TR
       43         30.40000         10                    1.000         TR
       44         30.40000         10                    1.000         TR
       45         30.40000         10                    1.000         TR
       46         30.40000         10                    1.000         TR
       47         30.40000         10                    1.000         TR
       48         30.40000         10                    1.000         TR
       49         30.40000         10                    1.000         TR
       50         30.40000         10                    1.000         TR
       51         30.40000         10                    1.000         TR
       52         30.40000         10                    1.000         TR
       53         30.40000         10                    1.000         TR
       54         30.40000         10                    1.000         TR
       55         30.40000         10                    1.000         TR
       56         30.40000         10                    1.000         TR
       57         30.40000         10                    1.000         TR
       58         30.40000         10                    1.000         TR
       59         30.40000         10                    1.000         TR
       60         30.40000         10                    1.000         TR
       61         30.40000         10                    1.000         TR
       62         30.40000         10                    1.000         TR
       63         30.40000         10                    1.000         TR
       64         30.40000         10                    1.000         TR
       65         30.40000         10                    1.000         TR
       66         30.40000         10                    1.000         TR
       67         30.40000         10                    1.000         TR
       68         30.40000         10                    1.000         TR
       69         30.40000         10                    1.000         TR
       70         30.40000         10                    1.000         TR
       71         30.40000         10                    1.000         TR
       72         30.40000         10                    1.000         TR
       73         30.40000         10                    1.000         TR
       74         30.40000         10                    1.000         TR
       75         30.40000         10                    1.000         TR
       76         30.40000         10                    1.000         TR
       77         30.40000         10                    1.000         TR
       78         30.40000         10                    1.000         TR
       79         30.40000         10                    1.000         TR
       80         30.40000         10                    1.000         TR
       81         30.40000         10                    1.000         TR
       82         30.40000         10                    1.000         TR
       83         30.40000         10                    1.000         TR
       84         30.40000         10                    1.000         TR
       85         30.40000         10                    1.000         TR
       86         30.40000         10                    1.000         TR
       87         30.40000         10                    1.000         TR
       88         30.40000         10                    1.000         TR
       89         30.40000         10                    1.000         TR
       90         30.40000         10                    1.000         TR
       91         30.40000         10                    1.000         TR
       92         30.40000         10                    1.000         TR
       93         30.40000         10                    1.000         TR
       94         30.40000         10                    1.000         TR
       95         30.40000         10                    1.000         TR
       96         30.40000         10                    1.000         TR
       97         30.40000         10                    1.000         TR
       98         30.40000         10                    1.000         TR
       99         30.40000         10                    1.000         TR
      100         30.40000         10                    1.000         TR

 TRANSIENT SIMULATION




 # BAS6 package for  MODFLOW-NWT, generated by Flopy.                            
 THE FREE FORMAT OPTION HAS BEEN SELECTED



                     BOUNDARY ARRAY FOR LAYER   1
 READING ON UNIT   13 WITH FORMAT: (510I10)            

 AQUIFER HEAD WILL BE SET TO  -999.99     AT ALL NO-FLOW NODES (IBOUND=0).



                       INITIAL HEAD FOR LAYER   1
 READING ON UNIT   13 WITH FORMAT: (510E15.6)          
 # OC package for  MODFLOW-NWT, generated by Flopy.

 OUTPUT CONTROL IS SPECIFIED ONLY AT TIME STEPS FOR WHICH OUTPUT IS DESIRED
 COMPACT CELL-BY-CELL BUDGET FILES WILL BE WRITTEN
 AUXILIARY DATA WILL BE SAVED IN CELL-BY-CELL BUDGET FILES
 HEAD PRINT FORMAT CODE IS   0    DRAWDOWN PRINT FORMAT CODE IS   0
 HEADS WILL BE SAVED ON UNIT   51    DRAWDOWNS WILL BE SAVED ON UNIT    0
 # NWT package for  MODFLOW-NWT, generated by Flopy.

 NWT1 -- Newton Solver, VERSION 1.1.4, 4/01/2018
         INPUT READ FROM UNIT 32

 COMPLEX OPTION:
 DEFAULT SOLVER INPUT VALUES REFLECT STRONGLY NONLINEAR MODEL
 ***XMD linear solver will be used***

   CONVERGENCE CRITERION OF   0.100000E+00 FOR HEAD SOLUTION
   AND A TOLERANCE OF   0.500000E+03 FOR FLOW SOLUTION AND 
   A MAXIMUM OF   500 OUTER ITERATIONS. 


   D-B-D REDUCTION FACTOR OF    0.850000E+00 AND 
   A D-B-D INCREASE FACTOR OF    0.100000E-04 AND 
   A D-B-D RELAXATION OF    0.000000E+00 AND 
   A MOMENTUM FACTOR OF    0.100000E+00 .


   BACKTRACKING IS ACTIVE 
   THE MAXIMUM NUMBER OF BACKTRACKS IS    50 AND 
   THE BACKTRACKING TOLERANCE IS    0.110000E+01 AND
   THE BACKTRACKING REDUCTION FACTOR IS    0.700000E+00

 XMD -- LINEAR SOLUTION BY XMD PACKAGE VERSION 1.30
     BY MOTOMU IBARAKI, OHIO STATE UNIVERSITY, COLOMBUS, OH
                 INPUT READ FROM UNIT 32
 ACCELERATION METHOD                    (IACL) =         2
 NODE ORDERING FLAG                   (NORDER) =         0
 LEVEL OF FILL                         (LEVEL) =        15
 MAXIMUM NUMBER OF ORTHOGONALIZATIONS  (NORTH) =         1
 INDEX FOR USING REDUCED SYSTEM      (IREDSYS) =         1
 RESID. REDUCTION CONVERGE CRITERION  (RRCTOL) =  0.000000E+00
 INDEX FOR USING DROP TOLERANCE     (IDROPTOL) =         1
 DROP TOLERANCE VALUE                  (EPSRN) =  0.100000E-02
 CONVERGENCE CRITERIA OF           (HCLOSEXMD) =  0.100000E-03
 MAX. NUMBER OF LINEAR ITERATIONS  (MXITERXMD) =       200


 UPW1 -- UPSTREAM WEIGHTING FLOW PACKAGE, VERSION 1.1.4, 4/01/2018
         INPUT READ FROM UNIT 31

 # UPW package for  MODFLOW-NWT, generated by Flopy.
 No named parameters

   LAYER FLAGS:
 LAYER       LAYTYP          LAYAVG    CHANI           LAYVKA           LAYWET
 ---------------------------------------------------------------------------
    1             1             0     1.000E+00             0             0

   INTERPRETATION OF LAYER FLAGS:
                        INTERBLOCK     HORIZONTAL    DATA IN
         LAYER TYPE   TRANSMISSIVITY   ANISOTROPY   ARRAY VKA   WETTABILITY
 LAYER   (LAYTYP)        (LAYAVG)      (CHANI)     (LAYVKA)       (LAYWET)
 ---------------------------------------------------------------------------
    1   CONVERTIBLE      HARMONIC     1.000E+00    VERTICAL K  NON-WETTABLE



              HYD. COND. ALONG ROWS FOR LAYER   1
 READING ON UNIT   31 WITH FORMAT: (510E15.6)          

      VERTICAL HYD. COND. =   1.00000     FOR LAYER   1

         SPECIFIC STORAGE =  1.000000E-05 FOR LAYER   1



                     SPECIFIC YIELD FOR LAYER   1
 READING ON UNIT   31 WITH FORMAT: (510E15.6)          

 WEL -- WELL PACKAGE FOR NWT VERSION 1.1.4,  4/01/2018 INPUT READ FROM UNIT   20
 # WEL package for  MODFLOW-NWT, generated by Flopy.
 No named parameters
 MAXIMUM OF    188 ACTIVE WELLS AT ONE TIME
 No named parameters
  PHIRAMP WILL BE SET TO A DEFAULT VALUE OF 1.0E-5
  WELLS WITH REDUCED PUMPING WILL BE REPORTED TO THE MAIN LISTING FILE


     0 Well parameters

 DRN -- DRAIN PACKAGE, VERSION 7, 5/2/2005 INPUT READ FROM UNIT   21
 # DRN package for  MODFLOW-NWT, generated by Flopy.
 No named parameters
 MAXIMUM OF   1061 ACTIVE DRAINS AT ONE TIME


     0 Drain parameters

 EVT -- EVAPOTRANSPIRATION PACKAGE, VERSION 7, 5/2/2005
         INPUT READ FROM UNIT   22
 # EVT package for  MODFLOW-NWT, generated by Flopy.
 No named parameters
 OPTION 3 -- EVAPOTRANSPIRATION FROM HIGHEST ACTIVE NODE IN EACH VERTICAL COLUMN


     0 Evapotranspiration parameters

 RCH -- RECHARGE PACKAGE, VERSION 7, 5/2/2005 INPUT READ FROM UNIT   19
 # RCH package for  MODFLOW-NWT, generated by Flopy.
 No named parameters
 OPTION 3 -- RECHARGE TO HIGHEST ACTIVE NODE IN EACH VERTICAL COLUMN


     0 Recharge parameters
1
                            STRESS PERIOD NO.    1, LENGTH =   30.40000    
                            -----------------------------------------------

                              NUMBER OF TIME STEPS =    10

                               MULTIPLIER FOR DELT =     1.000

                            INITIAL TIME STEP SIZE =   3.040000    

 WELL NO.  LAYER   ROW   COL   STRESS RATE         
 --------------------------------------------------
      1      1     69    225       0.000    
      2      1     71    224      -6048.    
      3      1     74    220      -6134.    
      4      1     73    220      -5789.    
      5      1     71    223      -6221.    
      6      1     71    223      -7344.    
      7      1     72    223      -6394.    
      8      1     92    173      -6653.    
      9      1     94    174      -5875.    
     10      1     93    175      -5875.    
     11      1    203    328      -5875.    
     12      1    438    460      -1198.    
     13      1    436    461      -1198.    
     14      1    410    454      -1198.    
     15      1    433    460      -1198.    
     16      1    431    462      -1198.    
     17      1    417    459      -1198.    
     18      1    418    458      -1198.    
     19      1    414    455      -1198.    
     20      1    443    464      -1198.    
     21      1    379    425      -1198.    
     22      1    362    405      -1198.    
     23      1    361    405      -1198.    
     24      1    362    406      -1198.    
     25      1    363    408      -1198.    
     26      1    364    410      -1198.    
     27      1    369    418      -1198.    
     28      1    367    417      -1198.    
     29      1    365    415      -1198.    
     30      1    402    447      -1198.    
     31      1    400    446      -1198.    
     32      1    392    444      -1198.    
     33      1    391    441      -1198.    
     34      1    403    448      -1198.    
     35      1    405    447      -1198.    
     36      1    362    410      -1198.    
     37      1    362    411      -1198.    
     38      1    363    412      -1198.    
     39      1    375    421      -1198.    
     40      1    383    430      -1198.    
     41      1    397    445      -1198.    
     42      1    360    403      -1198.    
     43      1    350    401      -1198.    
     44      1    346    393      -1268.    
     45      1    333    387      -1268.    
     46      1    328    384      -1268.    
     47      1    326    383      -1268.    
     48      1    323    378      -1268.    
     49      1    321    378      -1268.    
     50      1    322    376      -1268.    
     51      1    316    374      -1268.    
     52      1    311    371      -1268.    
     53      1    307    369      -1268.    
     54      1    305    368      -1268.    
     55      1    303    368      -1268.    
     56      1    300    369      -1268.    
     57      1    293    364      -1268.    
     58      1    292    362      -1268.    
     59      1    278    350      -1268.    
     60      1    274    351      -1268.    
     61      1    273    350      -1268.    
     62      1    271    350      -1268.    
     63      1    267    348      -1268.    
     64      1    263    348      -1268.    
     65      1    263    348      -1268.    
     66      1    248    347      -1268.    
     67      1    243    342      -1268.    
     68      1    242    339      -1268.    
     69      1    238    341      -1268.    
     70      1    233    340      -1268.    
     71      1    232    340      -1268.    
     72      1    229    341      -1268.    
     73      1    227    341      -1268.    
     74      1    219    342      -1268.    
     75      1    219    336      -1268.    
     76      1    199    329      -1268.    
     77      1    191    332      -0.000    
     78      1    190    332      -0.000    
     79      1    130    310      -0.000    
     80      1    123    305      -0.000    
     81      1    104    289      -0.000    
     82      1     96    287      -1902.    
     83      1     95    284      -1902.    
     84      1     95    280      -1902.    
     85      1     93    276      -1902.    
     86      1     94    275      -1902.    
     87      1     90    277      -1902.    
     88      1     90    273      -1902.    
     89      1     86    271      -1902.    
     90      1     85    270      -1902.    
     91      1     84    265      -1902.    
     92      1     85    265      -1902.    
     93      1     84    264      -1902.    
     94      1     79    263      -1902.    
     95      1     79    263      -1902.    
     96      1     76    262      -1902.    
     97      1     73    257      -1902.    
     98      1     74    255      -1902.    
     99      1     71    255      -1902.    
    100      1     66    253      -1902.    
    101      1     68    252      -1902.    
    102      1     69    250      -1902.    
    103      1     65    248      -1902.    
    104      1     68    248      -1902.    
    105      1     69    247      -1902.    
    106      1     73    247      -1902.    
    107      1     64    246      -1902.    
    108      1     69    245      -1902.    
    109      1     72    245      -1902.    
    110      1     69    241      -1902.    
    111      1     73    238      -1902.    
    112      1     70    238      -1902.    
    113      1     76    263      -1902.    
    114      1     66    232      -1041.    
    115      1     69    229      -1041.    
    116      1     71    228      -1041.    
    117      1     69    227      -1041.    
    118      1     72    219      -1041.    
    119      1     72    218      -1041.    
    120      1     72    218      -1041.    
    121      1     73    217      -1041.    
    122      1     77    219      -1041.    
    123      1     78    219      -1041.    
    124      1     83    213      -1041.    
    125      1     77    213      -1041.    
    126      1     81    211      -1041.    
    127      1     81    210      -1041.    
    128      1     81    210      -1041.    
    129      1     82    208      -1041.    
    130      1     80    205      -1041.    
    131      1     86    202      -1041.    
    132      1     84    200      -1041.    
    133      1     89    200      -1041.    
    134      1     89    199      -1041.    
    135      1     88    199      -1041.    
    136      1     86    199      -1041.    
    137      1     85    199      -1041.    
    138      1     82    197      -1041.    
    139      1     86    197      -1041.    
    140      1     88    198      -1041.    
    141      1     90    192      -1041.    
    142      1     89    191      -1041.    
    143      1     84    192      -1041.    
    144      1     91    189      -1041.    
    145      1     92    185      -1041.    
    146      1     87    183      -1041.    
    147      1     92    182      -1041.    
    148      1     90    182      -1041.    
    149      1     88    179      -1041.    
    150      1     89    176      -1041.    
    151      1     92    172      -1041.    
    152      1     93    164      -1041.    
    153      1     94    162      -1041.    
    154      1    103    156      -1041.    
    155      1    103    156      -1041.    
    156      1     96    154      -1041.    
    157      1     97    153      -1041.    
    158      1    122    139      -1041.    
    159      1     92     77      -1041.    
    160      1     94     77      -1041.    
    161      1     94     73      -1041.    
    162      1     97    152      -1041.    
    163      1    118    337      -666.7    
    164      1    133    319      -2678.    
    165      1    131    320      -3951.    
    166      1    133    321      -2956.    
    167      1    161    329      -2141.    
    168      1    178    330      -551.0    
    169      1    163    330      -1122.    
    170      1    131    320      -2473.    
    171      1    129    315      -3937.    
    172      1    162    329      -1959.    
    173      1    131    311      -826.1    
    174      1    221    340      -1994.    
    175      1    220    340      -1034.    
    176      1    221    340      -667.7    
    177      1    137    322      -2082.    
    178      1    137    321      -1407.    
    179      1    185    329      -2012.    
    180      1    183    329      -1473.    
    181      1    175    329      -585.3    
    182      1     79    243      -1490.    
    183      1     77    245      -2414.    
    184      1    199    329      -1617.    
    185      1    198    330      -2514.    
    186      1    140    328      -972.1    
    187      1    143    327      -863.6    
    188      1    139    327      -1331.    

    188 WELLS

 DRAIN NO.  LAYER   ROW   COL     DRAIN EL.  CONDUCTANCE         
 ----------------------------------------------------------------
      1      1     71    230       274.8           1000.    
      2      1     71    231       275.0           1000.    
      3      1     71    232       278.0           200.0    
      4      1     72    225       267.4           1000.    
      5      1     72    226       269.1           1000.    
      6      1     72    227       271.0           1000.    
      7      1     72    228       271.0           1000.    
      8      1     72    229       273.0           1000.    
      9      1     72    233       277.8           200.0    
     10      1     73    222       265.5           1000.    
     11      1     73    223       265.5           1000.    
     12      1     73    224       265.9           1000.    
     13      1     73    233       277.8           200.0    
     14      1     73    234       279.6           200.0    
     15      1     73    235       279.2           200.0    
     16      1     74    221       262.7           1000.    
     17      1     74    236       280.6           200.0    
     18      1     74    237       283.6           200.0    
     19      1     75    219       261.4           1000.    
     20      1     75    220       262.4           1000.    
     21      1     75    221       264.4           1000.    
     22      1     75    238       282.8           200.0    
     23      1     75    246       293.3           200.0    
     24      1     75    247       294.8           200.0    
     25      1     75    248       294.8           200.0    
     26      1     75    249       296.2           200.0    
     27      1     75    250       297.3           200.0    
     28      1     76    218       258.8           1000.    
     29      1     76    239       284.1           200.0    
     30      1     76    240       284.4           200.0    
     31      1     76    241       286.2           200.0    
     32      1     76    245       290.1           200.0    
     33      1     76    251       296.9           200.0    
     34      1     76    252       299.5           200.0    
     35      1     77    218       255.5           1000.    
     36      1     77    242       286.3           200.0    
     37      1     77    243       286.3           200.0    
     38      1     77    244       287.6           200.0    
     39      1     77    253       302.6           200.0    
     40      1     77    254       305.6           200.0    
     41      1     77    255       303.1           200.0    
     42      1     77    256       305.4           200.0    
     43      1     78    217       255.5           1000.    
     44      1     78    257       307.7           200.0    
     45      1     79    217       255.2           1000.    
     46      1     79    258       309.3           200.0    
     47      1     79    259       309.2           200.0    
     48      1     80    216       251.2           1000.    
     49      1     80    260       311.1           200.0    
     50      1     81    215       251.4           1000.    
     51      1     81    260       314.8           200.0    
     52      1     82    212       247.1           1000.    
     53      1     82    213       247.1           1000.    
     54      1     82    214       246.8           1000.    
     55      1     82    261       313.7           200.0    
     56      1     83    211       245.6           1000.    
     57      1     83    262       315.4           200.0    
     58      1     84    210       243.3           1000.    
     59      1     84    263       315.4           200.0    
     60      1     85    205       239.9           1000.    
     61      1     85    206       239.8           1000.    
     62      1     85    207       239.8           1000.    
     63      1     85    208       239.8           1000.    
     64      1     85    209       242.8           1000.    
     65      1     85    264       321.1           200.0    
     66      1     86    204       236.4           1000.    
     67      1     86    265       321.6           200.0    
     68      1     87    204       234.3           1000.    
     69      1     87    266       324.4           200.0    
     70      1     87    267       326.2           200.0    
     71      1     88     47       89.88           100.0    
     72      1     88    204       234.3           1000.    
     73      1     88    268       326.2           200.0    
     74      1     88    269       327.6           200.0    
     75      1     89     48       72.39           100.0    
     76      1     89     49       77.96           100.0    
     77      1     89    203       232.8           1000.    
     78      1     89    270       329.7           200.0    
     79      1     90     50       77.80           100.0    
     80      1     90     51       112.5           100.0    
     81      1     90     52       113.6           100.0    
     82      1     90     53       113.6           100.0    
     83      1     90     54       108.6           100.0    
     84      1     90     55       94.09           100.0    
     85      1     90     56       87.41           100.0    
     86      1     90    200       230.9           1000.    
     87      1     90    201       231.9           1000.    
     88      1     90    202       233.3           1000.    
     89      1     90    271       331.4           200.0    
     90      1     90    272       333.4           200.0    
     91      1     91     57       84.64           100.0    
     92      1     91    199       229.5           1000.    
     93      1     91    273       334.9           200.0    
     94      1     92     58       94.46           100.0    
     95      1     92    193       222.9           1000.    
     96      1     92    194       227.2           1000.    
     97      1     92    195       231.2           1000.    
     98      1     92    196       230.2           1000.    
     99      1     92    197       226.9           1000.    
    100      1     92    198       226.9           1000.    
    101      1     92    274       337.7           200.0    
    102      1     93     59       89.00           100.0    
    103      1     93    192       222.9           1000.    
    104      1     93    275       339.2           200.0    
    105      1     94     60       88.17           100.0    
    106      1     94    189       219.0           1000.    
    107      1     94    190       220.4           1000.    
    108      1     94    191       222.2           1000.    
    109      1     94    192       225.5           1000.    
    110      1     94    276       343.6           200.0    
    111      1     94    277       345.2           200.0    
    112      1     95     61       90.11           100.0    
    113      1     95    181       211.6           1000.    
    114      1     95    182       212.2           1000.    
    115      1     95    183       212.2           1000.    
    116      1     95    184       212.4           1000.    
    117      1     95    185       213.7           1000.    
    118      1     95    186       214.8           1000.    
    119      1     95    187       217.6           1000.    
    120      1     95    188       217.6           1000.    
    121      1     95    278       344.6           200.0    
    122      1     96     62       92.76           100.0    
    123      1     96    180       209.8           1000.    
    124      1     96    279       345.4           200.0    
    125      1     96    280       347.9           200.0    
    126      1     97     63       108.2           100.0    
    127      1     97     64       95.95           100.0    
    128      1     97     65       93.04           100.0    
    129      1     97    175       206.2           1000.    
    130      1     97    176       206.5           1000.    
    131      1     97    177       208.0           1000.    
    132      1     97    178       208.0           1000.    
    133      1     97    179       208.3           1000.    
    134      1     97    281       350.7           200.0    
    135      1     98     66       95.23           100.0    
    136      1     98     67       96.86           100.0    
    137      1     98     68       96.86           100.0    
    138      1     98     69       98.14           100.0    
    139      1     98     70       99.71           100.0    
    140      1     98     71       100.1           100.0    
    141      1     98     72       101.2           100.0    
    142      1     98     73       101.2           100.0    
    143      1     98     74       102.3           100.0    
    144      1     98     75       103.8           100.0    
    145      1     98     76       104.7           100.0    
    146      1     98    170       202.1           1000.    
    147      1     98    171       203.9           1000.    
    148      1     98    172       205.5           1000.    
    149      1     98    173       205.5           1000.    
    150      1     98    174       206.7           1000.    
    151      1     98    282       353.2           200.0    
    152      1     98    283       353.2           200.0    
    153      1     99     77       106.9           100.0    
    154      1     99    167       198.0           1000.    
    155      1     99    168       198.0           1000.    
    156      1     99    169       198.8           1000.    
    157      1     99    284       354.5           200.0    
    158      1     99    285       355.5           200.0    
    159      1    100     78       110.1           100.0    
    160      1    100    165       196.2           1000.    
    161      1    100    166       196.1           1000.    
    162      1    100    286       358.9           200.0    
    163      1    101     79       107.6           100.0    
    164      1    101     80       108.0           100.0    
    165      1    101    162       192.0           1000.    
    166      1    101    163       192.0           1000.    
    167      1    101    164       193.7           1000.    
    168      1    101    286       361.5           200.0    
    169      1    102     81       110.9           100.0    
    170      1    102     82       112.1           100.0    
    171      1    102    160       190.4           1000.    
    172      1    102    161       190.9           1000.    
    173      1    102    286       365.6           200.0    
    174      1    103     83       112.1           1.000    
    175      1    103     84       112.3           1.000    
    176      1    103     85       115.5           1.000    
    177      1    103    102       133.2           100.0    
    178      1    103    103       133.2           100.0    
    179      1    103    104       134.2           100.0    
    180      1    103    105       134.6           100.0    
    181      1    103    106       137.1           100.0    
    182      1    103    107       139.0           100.0    
    183      1    103    159       189.1           1000.    
    184      1    103    286       365.6           200.0    
    185      1    104     86       116.1           1.000    
    186      1    104     87       119.1           1.000    
    187      1    104     88       119.1           1.000    
    188      1    104     89       120.6           1.000    
    189      1    104     90       121.2           1.000    
    190      1    104     91       123.8           1.000    
    191      1    104     92       125.0           1.000    
    192      1    104     93       125.0           1.000    
    193      1    104     94       125.4           1.000    
    194      1    104     95       124.8           1.000    
    195      1    104     96       125.6           1.000    
    196      1    104     97       128.7           1.000    
    197      1    104     98       128.7           1.000    
    198      1    104     99       129.6           1.000    
    199      1    104    100       131.1           100.0    
    200      1    104    101       130.0           100.0    
    201      1    104    102       129.3           100.0    
    202      1    104    108       135.8           100.0    
    203      1    104    109       139.5           100.0    
    204      1    104    141       172.2           100.0    
    205      1    104    142       173.2           100.0    
    206      1    104    143       173.2           100.0    
    207      1    104    144       174.3           1000.    
    208      1    104    145       176.6           1000.    
    209      1    104    146       177.8           1000.    
    210      1    104    147       179.1           1000.    
    211      1    104    148       179.1           1000.    
    212      1    104    152       182.2           1000.    
    213      1    104    153       182.2           1000.    
    214      1    104    154       183.7           1000.    
    215      1    104    155       184.7           1000.    
    216      1    104    156       184.1           1000.    
    217      1    104    157       184.3           1000.    
    218      1    104    158       184.3           1000.    
    219      1    104    287       365.8           200.0    
    220      1    105    110       140.6           100.0    
    221      1    105    111       144.2           100.0    
    222      1    105    139       170.8           100.0    
    223      1    105    140       170.8           100.0    
    224      1    105    149       179.1           1000.    
    225      1    105    150       180.4           1000.    
    226      1    105    151       179.9           1000.    
    227      1    106    112       145.8           100.0    
    228      1    106    138       170.2           100.0    
    229      1    107    113       143.3           100.0    
    230      1    107    114       144.8           100.0    
    231      1    107    115       145.2           100.0    
    232      1    107    116       145.9           100.0    
    233      1    107    117       146.9           100.0    
    234      1    107    118       146.9           100.0    
    235      1    107    119       148.4           100.0    
    236      1    107    135       167.5           100.0    
    237      1    107    136       167.9           100.0    
    238      1    107    137       169.6           100.0    
    239      1    108    120       151.6           100.0    
    240      1    108    121       154.2           100.0    
    241      1    108    122       156.1           100.0    
    242      1    108    133       165.9           100.0    
    243      1    108    134       166.8           100.0    
    244      1    109    123       154.4           100.0    
    245      1    109    124       157.3           100.0    
    246      1    109    125       158.7           100.0    
    247      1    109    126       160.0           100.0    
    248      1    109    127       161.0           100.0    
    249      1    109    128       161.0           100.0    
    250      1    109    129       160.9           100.0    
    251      1    109    130       160.7           100.0    
    252      1    109    131       162.0           100.0    
    253      1    109    132       162.7           100.0    
    254      1    258    349       652.1           200.0    
    255      1    259    348       687.2           200.0    
    256      1    260    348       668.1           200.0    
    257      1    261    348       684.8           200.0    
    258      1    262    348       661.2           200.0    
    259      1    263    347       661.2           200.0    
    260      1    264    347       664.0           200.0    
    261      1    265    347       667.2           200.0    
    262      1    266    347       667.9           200.0    
    263      1    267    347       670.7           200.0    
    264      1    268    347       670.7           200.0    
    265      1    269    347       684.4           200.0    
    266      1    270    347       686.3           200.0    
    267      1    271    347       679.6           200.0    
    268      1    272    347       694.0           200.0    
    269      1    273    348       694.0           200.0    
    270      1    274    349       684.0           200.0    
    271      1    275    350       703.7           200.0    
    272      1    276    350       694.9           200.0    
    273      1    277    350       700.4           200.0    
    274      1    278    350       700.4           200.0    
    275      1    279    350       702.7           200.0    
    276      1    280    350       702.7           200.0    
    277      1    281    350       709.2           200.0    
    278      1    282    350       713.0           200.0    
    279      1    283    350       713.0           200.0    
    280      1    284    350       706.9           200.0    
    281      1    285    351       706.9           200.0    
    282      1    286    352       710.6           200.0    
    283      1    287    353       714.6           200.0    
    284      1    287    354       714.1           200.0    
    285      1    287    355       715.8           200.0    
    286      1    287    356       726.3           200.0    
    287      1    288    357       727.1           200.0    
    288      1    289    358       727.7           200.0    
    289      1    290    358       738.0           200.0    
    290      1    291    359       741.2           200.0    
    291      1    292    359       740.1           200.0    
    292      1    293    360       764.3           200.0    
    293      1    294    361       747.6           200.0    
    294      1    295    362       744.2           200.0    
    295      1    296    363       748.5           200.0    
    296      1    297    364       746.5           200.0    
    297      1    298    365       741.2           200.0    
    298      1    299    366       744.7           200.0    
    299      1    300    366       746.3           200.0    
    300      1    301    366       750.0           200.0    
    301      1    302    367       837.4           200.0    
    302      1    303    367       837.4           200.0    
    303      1    304    367       755.3           200.0    
    304      1    305    367       758.0           200.0    
    305      1    306    367       760.7           200.0    
    306      1    307    367       762.1           200.0    
    307      1    308    367       762.1           200.0    
    308      1    309    368       765.0           200.0    
    309      1    310    368       768.1           200.0    
    310      1    311    368       770.5           200.0    
    311      1    312    368       775.0           200.0    
    312      1    313    368       775.0           200.0    
    313      1    314    369       773.3           200.0    
    314      1    315    370       776.4           200.0    
    315      1    315    371       782.6           200.0    
    316      1    316    372       787.9           200.0    
    317      1    317    372       785.0           200.0    
    318      1    318    373       785.0           200.0    
    319      1    319    374       788.2           200.0    
    320      1    320    374       790.4           200.0    
    321      1    321    374       792.8           200.0    
    322      1    322    375       793.5           200.0    
    323      1    323    376       794.3           200.0    
    324      1    324    377       797.0           200.0    
    325      1    325    378       800.7           200.0    
    326      1    326    379       805.5           200.0    
    327      1    327    380       813.4           200.0    
    328      1    327    381       821.2           200.0    
    329      1    328    382       831.0           200.0    
    330      1    329    383       823.9           200.0    
    331      1    330    383       829.1           200.0    
    332      1    331    384       824.2           200.0    
    333      1    332    385       833.7           200.0    
    334      1    333    386       851.9           200.0    
    335      1    334    386       830.9           200.0    
    336      1    335    386       829.7           200.0    
    337      1    336    387       871.6           200.0    
    338      1    337    387       876.8           200.0    
    339      1    338    387       876.8           200.0    
    340      1    339    387       861.8           200.0    
    341      1    340    388       844.7           200.0    
    342      1    341    388       851.9           200.0    
    343      1    342    389       859.7           200.0    
    344      1    343    389       859.7           200.0    
    345      1    344    390       858.8           200.0    
    346      1    345    390       854.8           200.0    
    347      1    346    391       858.9           200.0    
    348      1    347    392       878.7           200.0    
    349      1    348    393       878.7           200.0    
    350      1    348    394       915.9           200.0    
    351      1    349    395       888.4           200.0    
    352      1    349    396       935.2           200.0    
    353      1    349    397       920.4           200.0    
    354      1    350    398       883.9           200.0    
    355      1    350    399       892.5           200.0    
    356      1    351    400       901.4           200.0    
    357      1    353    400       905.7           1000.    
    358      1    354    400       921.7           1000.    
    359      1    355    400       910.0           1000.    
    360      1    356    401       902.4           1000.    
    361      1    357    401       900.6           1000.    
    362      1    358    401       900.6           1000.    
    363      1    359    400       901.9           1000.    
    364      1    360    400       927.5           1000.    
    365      1    361    401       917.6           1000.    
    366      1    362    402       922.0           1000.    
    367      1    363    403       922.0           1000.    
    368      1    364    404       919.1           1000.    
    369      1    364    405       934.3           1000.    
    370      1    364    406       955.8           1000.    
    371      1    364    407       960.0           1000.    
    372      1    365    408       938.7           1000.    
    373      1    366    409       941.3           1000.    
    374      1    366    410       939.9           1000.    
    375      1    366    411       951.0           1000.    
    376      1    367    412       942.7           1000.    
    377      1    368    413       942.7           1000.    
    378      1    368    414       946.7           1000.    
    379      1    368    415       948.3           1000.    
    380      1    369    416       950.0           1000.    
    381      1    370    417       953.8           1000.    
    382      1    371    417       955.0           1000.    
    383      1    372    418       954.0           1000.    
    384      1    373    418       954.0           1000.    
    385      1    374    418       955.0           1000.    
    386      1    375    419       954.5           1000.    
    387      1    376    419       960.1           1000.    
    388      1    377    420       961.0           1000.    
    389      1    378    420       961.0           1000.    
    390      1    379    421       969.8           1000.    
    391      1    380    422       967.9           1000.    
    392      1    380    423       967.9           1000.    
    393      1    381    424       971.0           1000.    
    394      1    382    425       976.4           1000.    
    395      1    383    426       1004.           1000.    
    396      1    384    427       1011.           1000.    
    397      1    385    428       980.0           1000.    
    398      1    386    429       981.1           1000.    
    399      1    387    430       990.6           1000.    
    400      1    387    431       1008.           1000.    
    401      1    388    432       1026.           1000.    
    402      1    389    433       1012.           1000.    
    403      1    390    433       1000.           1000.    
    404      1    390    434       1011.           1000.    
    405      1    391    435       1003.           1000.    
    406      1    392    436       1001.           1000.    
    407      1    392    437       1004.           1000.    
    408      1    392    438       1004.           1000.    
    409      1    393    439       1005.           1000.    
    410      1    394    440       1007.           1000.    
    411      1    395    440       1005.           1000.    
    412      1    396    441       1010.           1000.    
    413      1    397    441       1012.           1000.    
    414      1    398    441       1012.           1000.    
    415      1    399    442       1016.           1000.    
    416      1    400    443       1017.           1000.    
    417      1    401    444       1016.           1000.    
    418      1    402    445       1021.           1000.    
    419      1    403    445       1021.           1000.    
    420      1    404    445       1020.           1000.    
    421      1    405    446       1028.           1000.    
    422      1    406    447       1029.           1000.    
    423      1    407    448       1029.           1000.    
    424      1    408    448       1029.           1000.    
    425      1    409    449       1033.           1000.    
    426      1    410    450       1041.           1000.    
    427      1    410    451       1040.           1000.    
    428      1    411    452       1044.           1000.    
    429      1    412    453       1044.           1000.    
    430      1    413    453       1044.           1000.    
    431      1    414    453       1044.           1000.    
    432      1    415    453       1139.           1000.    
    433      1    416    453       1136.           1000.    
    434      1    417    453       1109.           1000.    
    435      1    418    454       1061.           1000.    
    436      1    419    454       1054.           1000.    
    437      1    420    454       1069.           1000.    
    438      1    421    455       1061.           1000.    
    439      1    422    455       1063.           1000.    
    440      1    423    456       1071.           1000.    
    441      1    424    457       1074.           1000.    
    442      1    425    458       1070.           1000.    
    443      1    426    458       1072.           1000.    
    444      1    427    458       1074.           1000.    
    445      1    428    458       1074.           1000.    
    446      1    429    458       1076.           1000.    
    447      1    430    457       1077.           1000.    
    448      1    431    457       1079.           1000.    
    449      1    432    457       1083.           1000.    
    450      1    433    457       1083.           1000.    
    451      1    434    457       1084.           1000.    
    452      1    435    457       1086.           1000.    
    453      1    436    458       1089.           1000.    
    454      1    437    458       1093.           1000.    
    455      1    438    458       1093.           1000.    
    456      1    439    459       1097.           1000.    
    457      1    440    459       1097.           1000.    
    458      1    441    459       1100.           1000.    
    459      1    442    460       1106.           1000.    
    460      1    443    460       1106.           1000.    
    461      1    443    461       1117.           1000.    
    462      1    444    462       1125.           1000.    
    463      1    445    463       1116.           1000.    
    464      1    446    464       1129.           1000.    
    465      1    447    465       1138.           1000.    
    466      1    448    466       1149.           1000.    
    467      1    449    466       1151.           1000.    
    468      1    450    467       1131.           1000.    
    469      1    451    468       1132.           1000.    
    470      1    452    469       1137.           1000.    
    471      1    453    470       1137.           1000.    
    472      1    454    471       1139.           1000.    
    473      1    455    472       1164.           1000.    
    474      1    456    473       1147.           1000.    
    475      1    457    474       1150.           1000.    
    476      1    458    475       1160.           1000.    
    477      1    459    475       1154.           1000.    
    478      1    460    476       1169.           1000.    
    479      1    460    508       1356.           1000.    
    480      1    460    509       1346.           1000.    
    481      1    461    476       1164.           1000.    
    482      1    461    506       1365.           1000.    
    483      1    461    507       1337.           1000.    
    484      1    462    476       1160.           1000.    
    485      1    462    506       1334.           1000.    
    486      1    463    476       1160.           1000.    
    487      1    463    505       1338.           1000.    
    488      1    464    477       1181.           1000.    
    489      1    464    504       1325.           1000.    
    490      1    465    477       1165.           1000.    
    491      1    465    503       1317.           1000.    
    492      1    466    478       1166.           1000.    
    493      1    466    503       1317.           1000.    
    494      1    467    478       1169.           1000.    
    495      1    467    502       1322.           1000.    
    496      1    468    478       1169.           1000.    
    497      1    468    502       1322.           1000.    
    498      1    469    478       1173.           1000.    
    499      1    469    502       1312.           1000.    
    500      1    470    478       1175.           1000.    
    501      1    470    501       1290.           1000.    
    502      1    471    477       1177.           1000.    
    503      1    471    500       1284.           1000.    
    504      1    472    476       1179.           1000.    
    505      1    472    498       1281.           1000.    
    506      1    472    499       1281.           1000.    
    507      1    473    475       1179.           1000.    
    508      1    473    497       1281.           1000.    
    509      1    474    475       1182.           1000.    
    510      1    474    496       1276.           1000.    
    511      1    475    475       1183.           1000.    
    512      1    475    495       1279.           1000.    
    513      1    476    474       1189.           1000.    
    514      1    476    475       1189.           1000.    
    515      1    476    494       1291.           1000.    
    516      1    476    495       1287.           1000.    
    517      1    477    474       1191.           1000.    
    518      1    477    475       1192.           1000.    
    519      1    477    493       1255.           1000.    
    520      1    478    474       1191.           1000.    
    521      1    478    476       1194.           1000.    
    522      1    478    493       1255.           1000.    
    523      1    479    474       1195.           1000.    
    524      1    479    476       1198.           1000.    
    525      1    479    493       1249.           1000.    
    526      1    480    474       1198.           1000.    
    527      1    480    477       1204.           1000.    
    528      1    480    492       1250.           1000.    
    529      1    481    474       1201.           1000.    
    530      1    481    478       1206.           1000.    
    531      1    481    491       1246.           1000.    
    532      1    482    473       1212.           1000.    
    533      1    482    479       1216.           1000.    
    534      1    482    480       1236.           1000.    
    535      1    482    489       1233.           1000.    
    536      1    482    490       1238.           1000.    
    537      1    483    473       1212.           1000.    
    538      1    483    481       1253.           1000.    
    539      1    483    482       1240.           1000.    
    540      1    483    483       1240.           1000.    
    541      1    483    484       1274.           1000.    
    542      1    483    485       1268.           1000.    
    543      1    483    486       1236.           1000.    
    544      1    483    487       1230.           1000.    
    545      1    483    488       1230.           1000.    
    546      1    484    473       1228.           1000.    
    547      1    484    484       1229.           1000.    
    548      1    485    472       1240.           1000.    
    549      1    485    485       1230.           1000.    
    550      1    486    472       1236.           1000.    
    551      1    486    486       1253.           1000.    
    552      1    487    472       1235.           1000.    
    553      1    487    486       1241.           1000.    
    554      1    488    472       1235.           1000.    
    555      1    488    486       1241.           1000.    
    556      1    489    472       1230.           1000.    
    557      1    489    486       1239.           1000.    
    558      1    490    473       1230.           1000.    
    559      1    490    486       1245.           1000.    
    560      1    491    473       1235.           1000.    
    561      1    491    487       1256.           1000.    
    562      1    492    474       1236.           1000.    
    563      1    492    487       1256.           1000.    
    564      1    493    474       1236.           1000.    
    565      1    493    488       1256.           1000.    
    566      1    494    474       1236.           1000.    
    567      1    494    489       1261.           1000.    
    568      1    495    474       1241.           1000.    
    569      1    495    489       1264.           1000.    
    570      1    496    474       1247.           1000.    
    571      1    496    489       1270.           1000.    
    572      1    497    474       1251.           1000.    
    573      1    497    489       1272.           1000.    
    574      1    498    474       1251.           1000.    
    575      1    498    489       1272.           1000.    
    576      1    499    474       1257.           1000.    
    577      1    499    489       1275.           1000.    
    578      1    500    473       1260.           1000.    
    579      1    500    490       1286.           1000.    
    580      1    501    473       1272.           1000.    
    581      1    501    490       1289.           1000.    
    582      1    502    473       1279.           1000.    
    583      1    502    491       1308.           1000.    
    584      1    503    473       1279.           1000.    
    585      1    503    491       1308.           1000.    
    586      1    504    473       1283.           1000.    
    587      1    504    491       1295.           1000.    
    588      1    505    473       1297.           1000.    
    589      1    505    492       1309.           1000.    
    590      1    506    474       1312.           1000.    
    591      1    506    493       1317.           1000.    
    592      1    507    474       1303.           1000.    
    593      1    507    494       1336.           1000.    
    594      1    508    475       1305.           1000.    
    595      1    508    494       1336.           1000.    
    596      1    509    475       1293.           1000.    
    597      1    509    494       1329.           1000.    
    598      1    510    475       1296.           1000.    
    599      1    510    494       1328.           1000.    
    600      1    511    475       1300.           1000.    
    601      1    511    494       1333.           1000.    
    602      1    512    475       1304.           1000.    
    603      1    512    493       1336.           1000.    
    604      1    513    475       1304.           1000.    
    605      1    513    493       1336.           1000.    
    606      1    514    476       1319.           1000.    
    607      1    514    493       1334.           1000.    
    608      1    515    476       1323.           1000.    
    609      1    515    493       1347.           1000.    
    610      1    516    476       1328.           1000.    
    611      1    516    493       1349.           1000.    
    612      1    517    476       1329.           1000.    
    613      1    517    494       1356.           1000.    
    614      1    518    476       1329.           1000.    
    615      1    518    494       1356.           1000.    
    616      1    519    476       1333.           1000.    
    617      1    519    495       1359.           1000.    
    618      1    105    288       367.1           1000.    
    619      1    105    289       369.5           1000.    
    620      1    106    289       371.3           1000.    
    621      1    106    290       371.2           1000.    
    622      1    106    291       372.5           1000.    
    623      1    106    292       376.2           1000.    
    624      1    107    292       376.1           1000.    
    625      1    107    293       376.1           1000.    
    626      1    107    294       379.0           1000.    
    627      1    108    294       379.0           1000.    
    628      1    108    295       381.3           1000.    
    629      1    109    295       383.8           1000.    
    630      1    109    296       388.0           1000.    
    631      1    109    297       390.4           1000.    
    632      1    110    297       388.1           1000.    
    633      1    111    297       389.3           1000.    
    634      1    111    298       389.3           1000.    
    635      1    112    298       387.1           1000.    
    636      1    112    299       392.9           1000.    
    637      1    113    299       392.9           1000.    
    638      1    113    300       394.8           1000.    
    639      1    114    300       395.2           1000.    
    640      1    114    301       398.0           1000.    
    641      1    115    301       397.5           1000.    
    642      1    115    302       400.0           1000.    
    643      1    116    302       400.7           1000.    
    644      1    116    303       400.7           1000.    
    645      1    117    303       401.8           1000.    
    646      1    117    304       403.6           1000.    
    647      1    118    304       403.6           1000.    
    648      1    118    305       405.5           1000.    
    649      1    119    305       406.7           1000.    
    650      1    120    305       407.5           1000.    
    651      1    120    306       410.8           1000.    
    652      1    121    306       410.2           1000.    
    653      1    122    306       407.5           1000.    
    654      1    122    307       415.4           1000.    
    655      1    123    307       415.4           1000.    
    656      1    124    307       416.4           1000.    
    657      1    124    308       416.4           1000.    
    658      1    125    308       414.3           1000.    
    659      1    126    308       412.3           1000.    
    660      1    126    309       417.0           1000.    
    661      1    127    309       418.1           1000.    
    662      1    127    310       419.9           1000.    
    663      1    128    310       419.9           1000.    
    664      1    128    311       421.1           1000.    
    665      1    129    311       422.4           1000.    
    666      1    129    312       424.3           1000.    
    667      1    130    312       424.6           1000.    
    668      1    130    313       424.6           1000.    
    669      1    130    314       426.5           1000.    
    670      1    131    314       425.8           1000.    
    671      1    131    315       428.9           1000.    
    672      1    131    316       431.6           1000.    
    673      1    132    316       430.0           1000.    
    674      1    132    317       433.7           1000.    
    675      1    133    317       433.7           1000.    
    676      1    133    318       433.7           1000.    
    677      1    134    318       432.7           1000.    
    678      1    134    319       436.6           1000.    
    679      1    135    319       436.6           1000.    
    680      1    135    320       439.5           1000.    
    681      1    136    320       437.3           1000.    
    682      1    136    321       439.3           1000.    
    683      1    136    322       441.7           1000.    
    684      1    136    323       441.7           1000.    
    685      1    137    323       439.3           1000.    
    686      1    137    324       441.3           1000.    
    687      1    137    325       444.2           1000.    
    688      1    138    325       444.2           1000.    
    689      1    138    326       447.0           1000.    
    690      1    138    327       455.7           1000.    
    691      1    139    327       454.5           1000.    
    692      1    139    328       454.5           1000.    
    693      1    140    328       443.9           1000.    
    694      1    140    329       446.1           1000.    
    695      1    141    329       446.0           1000.    
    696      1    142    329       447.9           1000.    
    697      1    143    329       447.9           1000.    
    698      1    144    329       448.8           1000.    
    699      1    145    329       447.3           1000.    
    700      1    145    330       450.7           1000.    
    701      1    146    330       453.7           1000.    
    702      1    147    330       454.7           1000.    
    703      1    148    330       454.7           1000.    
    704      1    149    329       454.8           1000.    
    705      1    149    330       454.7           1000.    
    706      1    150    329       457.0           1000.    
    707      1    151    329       460.2           1000.    
    708      1    152    329       460.9           1000.    
    709      1    153    329       460.9           1000.    
    710      1    154    329       463.1           1000.    
    711      1    155    329       465.9           1000.    
    712      1    156    329       467.5           1000.    
    713      1    157    329       468.4           1000.    
    714      1    158    329       468.4           1000.    
    715      1    159    329       470.2           1000.    
    716      1    160    329       473.1           1000.    
    717      1    161    329       477.0           1000.    
    718      1    162    329       479.0           1000.    
    719      1    162    330       484.6           1000.    
    720      1    163    330       484.6           1000.    
    721      1    164    330       484.6           1000.    
    722      1    165    330       484.8           1000.    
    723      1    166    330       485.8           1000.    
    724      1    167    330       486.9           1000.    
    725      1    168    330       486.9           1000.    
    726      1    169    330       489.6           1000.    
    727      1    170    330       491.7           1000.    
    728      1    170    331       496.4           1000.    
    729      1    171    331       501.7           1000.    
    730      1    172    331       510.2           1000.    
    731      1    173    331       510.2           1000.    
    732      1    174    331       509.4           1000.    
    733      1    175    331       512.5           1000.    
    734      1    176    331       514.8           1000.    
    735      1    177    331       515.6           1000.    
    736      1    178    331       515.6           1000.    
    737      1    179    331       512.2           1000.    
    738      1    180    331       510.0           1000.    
    739      1    181    331       515.7           1000.    
    740      1    182    331       534.4           1000.    
    741      1    183    331       534.4           1000.    
    742      1    184    331       536.2           1000.    
    743      1    185    331       523.2           1000.    
    744      1    186    331       520.7           1000.    
    745      1    187    331       519.1           1000.    
    746      1    188    331       519.1           1000.    
    747      1    189    331       520.6           1000.    
    748      1    190    331       523.7           1000.    
    749      1    191    331       525.0           1000.    
    750      1    192    331       528.1           1000.    
    751      1    193    331       528.1           1000.    
    752      1    194    331       531.2           1000.    
    753      1    195    331       544.2           1000.    
    754      1    196    331       560.0           1000.    
    755      1    197    331       559.4           1000.    
    756      1    198    330       537.0           1000.    
    757      1    198    331       559.4           1000.    
    758      1    199    330       539.9           1000.    
    759      1    200    330       545.1           1000.    
    760      1    201    330       551.1           1000.    
    761      1    202    330       557.1           1000.    
    762      1    203    329       546.5           1000.    
    763      1    203    330       557.1           1000.    
    764      1    204    329       549.2           1000.    
    765      1    205    329       553.1           1000.    
    766      1    206    329       554.1           1000.    
    767      1    207    329       557.0           1000.    
    768      1    208    329       557.0           1000.    
    769      1    209    329       557.5           1000.    
    770      1    209    330       560.8           1000.    
    771      1    210    330       559.9           1000.    
    772      1    211    330       562.1           1000.    
    773      1    212    330       568.2           1000.    
    774      1    212    331       565.9           1000.    
    775      1    213    331       565.9           1000.    
    776      1    214    331       578.5           1000.    
    777      1    215    331       598.3           1000.    
    778      1    215    332       572.9           1000.    
    779      1    216    332       574.6           1000.    
    780      1    217    332       574.4           1000.    
    781      1    217    333       574.4           1000.    
    782      1    218    333       574.4           1000.    
    783      1    219    333       574.2           1000.    
    784      1    219    334       582.3           1000.    
    785      1    220    334       581.3           1000.    
    786      1    221    334       579.6           1000.    
    787      1    221    335       589.8           1000.    
    788      1    222    335       588.2           1000.    
    789      1    222    336       592.8           1000.    
    790      1    223    336       592.8           1000.    
    791      1    223    337       597.7           1000.    
    792      1    223    338       597.7           1000.    
    793      1    224    338       595.0           1000.    
    794      1    224    339       598.4           1000.    
    795      1    225    339       594.8           1000.    
    796      1    226    339       590.5           1000.    
    797      1    227    339       592.1           1000.    
    798      1    228    338       597.4           1000.    
    799      1    228    339       592.1           1000.    
    800      1    229    338       600.8           1000.    
    801      1    230    338       608.7           1000.    
    802      1    231    338       609.8           1000.    
    803      1    232    338       601.2           1000.    
    804      1    233    338       601.2           1000.    
    805      1    234    338       604.5           1000.    
    806      1    235    338       607.5           1000.    
    807      1    235    339       607.9           1000.    
    808      1    236    339       609.8           1000.    
    809      1    237    339       612.8           1000.    
    810      1    238    339       612.8           1000.    
    811      1    239    339       614.1           1000.    
    812      1    240    339       616.0           1000.    
    813      1    241    339       617.8           1000.    
    814      1    241    340       618.9           1000.    
    815      1    242    340       621.0           1000.    
    816      1    243    340       621.0           1000.    
    817      1    244    340       622.2           1000.    
    818      1    244    341       623.8           1000.    
    819      1    245    341       624.7           1000.    
    820      1    245    342       627.8           1000.    
    821      1    246    342       628.6           1000.    
    822      1    247    342       629.1           1000.    
    823      1    247    343       629.1           1000.    
    824      1    248    343       629.1           1000.    
    825      1    248    344       629.7           1000.    
    826      1    249    344       632.3           1000.    
    827      1    249    345       633.7           1000.    
    828      1    250    345       636.0           1000.    
    829      1    251    345       642.7           1000.    
    830      1    251    346       640.8           1000.    
    831      1    252    346       675.6           1000.    
    832      1    252    347       652.7           1000.    
    833      1    253    347       652.7           1000.    
    834      1    253    348       652.7           1000.    
    835      1    254    348       705.6           1000.    
    836      1    254    349       647.2           1000.    
    837      1    255    349       647.7           1000.    
    838      1    256    349       649.8           1000.    
    839      1    257    349       652.1           1000.    
    840      1    105    288       367.1           1000.    
    841      1    105    289       369.5           1000.    
    842      1    106    289       371.3           1000.    
    843      1    106    290       371.2           1000.    
    844      1    106    291       372.5           1000.    
    845      1    106    292       376.2           1000.    
    846      1    107    292       376.1           1000.    
    847      1    107    293       376.1           1000.    
    848      1    107    294       379.0           1000.    
    849      1    108    294       379.0           1000.    
    850      1    108    295       381.3           1000.    
    851      1    109    295       383.8           1000.    
    852      1    109    296       388.0           1000.    
    853      1    109    297       390.4           1000.    
    854      1    110    297       388.1           1000.    
    855      1    111    297       389.3           1000.    
    856      1    111    298       389.3           1000.    
    857      1    112    298       387.1           1000.    
    858      1    112    299       392.9           1000.    
    859      1    113    299       392.9           1000.    
    860      1    113    300       394.8           1000.    
    861      1    114    300       395.2           1000.    
    862      1    114    301       398.0           1000.    
    863      1    115    301       397.5           1000.    
    864      1    115    302       400.0           1000.    
    865      1    116    302       400.7           1000.    
    866      1    116    303       400.7           1000.    
    867      1    117    303       401.8           1000.    
    868      1    117    304       403.6           1000.    
    869      1    118    304       403.6           1000.    
    870      1    118    305       405.5           1000.    
    871      1    119    305       406.7           1000.    
    872      1    120    305       407.5           1000.    
    873      1    120    306       410.8           1000.    
    874      1    121    306       410.2           1000.    
    875      1    122    306       407.5           1000.    
    876      1    122    307       415.4           1000.    
    877      1    123    307       415.4           1000.    
    878      1    124    307       416.4           1000.    
    879      1    124    308       416.4           1000.    
    880      1    125    308       414.3           1000.    
    881      1    126    308       412.3           1000.    
    882      1    126    309       417.0           1000.    
    883      1    127    309       418.1           1000.    
    884      1    127    310       419.9           1000.    
    885      1    128    310       419.9           1000.    
    886      1    128    311       421.1           1000.    
    887      1    129    311       422.4           1000.    
    888      1    129    312       424.3           1000.    
    889      1    130    312       424.6           1000.    
    890      1    130    313       424.6           1000.    
    891      1    130    314       426.5           1000.    
    892      1    131    314       425.8           1000.    
    893      1    131    315       428.9           1000.    
    894      1    131    316       431.6           1000.    
    895      1    132    316       430.0           1000.    
    896      1    132    317       433.7           1000.    
    897      1    133    317       433.7           1000.    
    898      1    133    318       433.7           1000.    
    899      1    134    318       432.7           1000.    
    900      1    134    319       436.6           1000.    
    901      1    135    319       436.6           1000.    
    902      1    135    320       439.5           1000.    
    903      1    136    320       437.3           1000.    
    904      1    136    321       439.3           1000.    
    905      1    136    322       441.7           1000.    
    906      1    136    323       441.7           1000.    
    907      1    137    323       439.3           1000.    
    908      1    137    324       441.3           1000.    
    909      1    137    325       444.2           1000.    
    910      1    138    325       444.2           1000.    
    911      1    138    326       447.0           1000.    
    912      1    138    327       455.7           1000.    
    913      1    139    327       454.5           1000.    
    914      1    139    328       454.5           1000.    
    915      1    140    328       443.9           1000.    
    916      1    140    329       446.1           1000.    
    917      1    141    329       446.0           1000.    
    918      1    142    329       447.9           1000.    
    919      1    143    329       447.9           1000.    
    920      1    144    329       448.8           1000.    
    921      1    145    329       447.3           1000.    
[...]
     ------------------                 ------------------------

           IN:                                      IN:
           ---                                      ---
             STORAGE =   964120896.0000               STORAGE =      341968.0000
       CONSTANT HEAD =   154473264.0000         CONSTANT HEAD =       52193.3164
               WELLS =           0.0000                 WELLS =           0.0000
              DRAINS =           0.0000                DRAINS =           0.0000
                  ET =           0.0000                    ET =           0.0000
            RECHARGE =   513682688.0000              RECHARGE =      170069.0000

            TOTAL IN =  1632276864.0000              TOTAL IN =      564230.3125

          OUT:                                     OUT:
          ----                                     ----
             STORAGE =   244116864.0000               STORAGE =        7500.1758
       CONSTANT HEAD =           0.0000         CONSTANT HEAD =           0.0000
               WELLS =   966115264.0000                 WELLS =      478983.8438
              DRAINS =   298363232.0000                DRAINS =       53426.0703
                  ET =   120653976.0000                    ET =       22656.2656
            RECHARGE =      525047.1875              RECHARGE =           0.0000

           TOTAL OUT =  1629774336.0000             TOTAL OUT =      562566.3750

            IN - OUT =     2502528.0000              IN - OUT =        1663.9375

 PERCENT DISCREPANCY =           0.15     PERCENT DISCREPANCY =           0.30






         TIME SUMMARY AT END OF TIME STEP   10 IN STRESS PERIOD   99
                    SECONDS     MINUTES      HOURS       DAYS        YEARS
                    -----------------------------------------------------------
   TIME STEP LENGTH 2.62656E+05  4377.6      72.960      3.0400     8.32307E-03
 STRESS PERIOD TIME 2.62656E+06  43776.      729.60      30.400     8.32307E-02
         TOTAL TIME 2.60031E+08 4.33386E+06  72231.      3009.6      8.2399    
1
1
                            STRESS PERIOD NO.  100, LENGTH =   30.40000    
                            -----------------------------------------------

                              NUMBER OF TIME STEPS =    10

                               MULTIPLIER FOR DELT =     1.000

                            INITIAL TIME STEP SIZE =   3.040000    

 REUSING NON-PARAMETER WELLS FROM LAST STRESS PERIOD

    188 WELLS

 REUSING NON-PARAMETER DRAINS FROM LAST STRESS PERIOD

   1061 DRAINS

 REUSING SURF FROM LAST STRESS PERIOD

 REUSING EVTR FROM LAST STRESS PERIOD

 REUSING EXDP FROM LAST STRESS PERIOD



                           RECHARGE
 READING ON UNIT   19 WITH FORMAT: (510E15.6)          

 SOLVING FOR HEAD 
                                                   Max.-Head-Change                        Max.-Flux-Residual
  Residual-Control   Outer-Iter.   Inner-Iter.     Column Row Layer    Max.-Head-Change    Column Row Layer    Max.-Flux-Residual            L2-New               L2-Old           Solver-Max-Delh
          0                 1           3           263   79     1      -0.2478050819E+00     464  446    1       0.5916954707E+03      0.7385261962E+04      0.2809492970E+02     -0.2478050819E+00
          0                 2           2           203   77     1      -0.2305506926E-01     466  446    1      -0.5953608216E+02      0.7395376465E+03      0.7385261962E+04     -0.2305506926E-01

    ------------------------------------------------
       NWT REQUIRED            2 OUTER ITERATIONS 
       AND A TOTAL OF          5 INNER ITERATIONS.
    ------------------------------------------------

 NO OUTPUT CONTROL FOR STRESS PERIOD  100   TIME STEP    1

 WELLS WITH REDUCED PUMPING FOR STRESS PERIOD   100 TIME STEP     1
   LAY   ROW   COL         APPL.Q          ACT.Q        GW-HEAD       CELL-BOT
     1    77   213  -0.230952E+04  -0.654529E+03   0.152203E+03   0.148000E+03
     1    92    77  -0.230952E+04  -0.399793E+03  -0.866198E+02  -0.930000E+02
     1    94    77  -0.230952E+04  -0.348221E+03  -0.964562E+02  -0.102000E+03
     1    94    73  -0.230952E+04  -0.419801E+03  -0.685094E+02  -0.740000E+02


 SOLVING FOR HEAD 
                                                   Max.-Head-Change                        Max.-Flux-Residual
  Residual-Control   Outer-Iter.   Inner-Iter.     Column Row Layer    Max.-Head-Change    Column Row Layer    Max.-Flux-Residual            L2-New               L2-Old           Solver-Max-Delh
          0                 1           3           264   77     1      -0.2254626764E+00     461  449    1       0.4640775179E+03      0.6756696409E+04      0.3698577276E+02     -0.2254626764E+00
          0                 2           2           264   77     1       0.1940730411E-01     463  450    1      -0.5941495985E+02      0.6762589138E+03      0.6756696409E+04      0.1940730411E-01

    ------------------------------------------------
       NWT REQUIRED            2 OUTER ITERATIONS 
       AND A TOTAL OF          5 INNER ITERATIONS.
    ------------------------------------------------

 NO OUTPUT CONTROL FOR STRESS PERIOD  100   TIME STEP    2

 WELLS WITH REDUCED PUMPING FOR STRESS PERIOD   100 TIME STEP     2
   LAY   ROW   COL         APPL.Q          ACT.Q        GW-HEAD       CELL-BOT
     1    77   213  -0.230952E+04  -0.652491E+03   0.152195E+03   0.148000E+03
     1    92    77  -0.230952E+04  -0.393849E+03  -0.866731E+02  -0.930000E+02
     1    94    77  -0.230952E+04  -0.347463E+03  -0.964628E+02  -0.102000E+03
     1    94    73  -0.230952E+04  -0.418905E+03  -0.685160E+02  -0.740000E+02


 SOLVING FOR HEAD 
                                                   Max.-Head-Change                        Max.-Flux-Residual
  Residual-Control   Outer-Iter.   Inner-Iter.     Column Row Layer    Max.-Head-Change    Column Row Layer    Max.-Flux-Residual            L2-New               L2-Old           Solver-Max-Delh
          0                 1           3           264   77     1      -0.2149303168E+00     461  449    1       0.3584500617E+03      0.6563661503E+04      0.3381422059E+02     -0.2149303168E+00
          0                 2           2           264   77     1       0.1849808472E-01     461  449    1      -0.3602314097E+02      0.6564264711E+03      0.6563661503E+04      0.1849808472E-01

    ------------------------------------------------
       NWT REQUIRED            2 OUTER ITERATIONS 
       AND A TOTAL OF          5 INNER ITERATIONS.
    ------------------------------------------------

 NO OUTPUT CONTROL FOR STRESS PERIOD  100   TIME STEP    3

 WELLS WITH REDUCED PUMPING FOR STRESS PERIOD   100 TIME STEP     3
   LAY   ROW   COL         APPL.Q          ACT.Q        GW-HEAD       CELL-BOT
     1    77   213  -0.230952E+04  -0.650593E+03   0.152188E+03   0.148000E+03
     1    92    77  -0.230952E+04  -0.390532E+03  -0.867029E+02  -0.930000E+02
     1    94    77  -0.230952E+04  -0.346735E+03  -0.964693E+02  -0.102000E+03
     1    94    73  -0.230952E+04  -0.418049E+03  -0.685223E+02  -0.740000E+02


 SOLVING FOR HEAD 
                                                   Max.-Head-Change                        Max.-Flux-Residual
  Residual-Control   Outer-Iter.   Inner-Iter.     Column Row Layer    Max.-Head-Change    Column Row Layer    Max.-Flux-Residual            L2-New               L2-Old           Solver-Max-Delh
          0                 1           3           265   78     1      -0.2067193399E+00     197   82    1      -0.3100761032E+03      0.6469071080E+04      0.3282224156E+02     -0.2067193399E+00
          0                 2           2            52   88     1      -0.4907344965E-01     197   82    1       0.3100325717E+02      0.6476837322E+03      0.6469071080E+04     -0.4907344965E-01

    ------------------------------------------------
       NWT REQUIRED            2 OUTER ITERATIONS 
       AND A TOTAL OF          5 INNER ITERATIONS.
    ------------------------------------------------

 NO OUTPUT CONTROL FOR STRESS PERIOD  100   TIME STEP    4

 WELLS WITH REDUCED PUMPING FOR STRESS PERIOD   100 TIME STEP     4
   LAY   ROW   COL         APPL.Q          ACT.Q        GW-HEAD       CELL-BOT
     1    77   213  -0.230952E+04  -0.648820E+03   0.152181E+03   0.148000E+03
     1    92    77  -0.230952E+04  -0.388613E+03  -0.867202E+02  -0.930000E+02
     1    94    77  -0.230952E+04  -0.346034E+03  -0.964755E+02  -0.102000E+03
     1    94    73  -0.230952E+04  -0.417233E+03  -0.685283E+02  -0.740000E+02


 SOLVING FOR HEAD 
                                                   Max.-Head-Change                        Max.-Flux-Residual
  Residual-Control   Outer-Iter.   Inner-Iter.     Column Row Layer    Max.-Head-Change    Column Row Layer    Max.-Flux-Residual            L2-New               L2-Old           Solver-Max-Delh
          0                 1           3           265   78     1      -0.2037966219E+00     197   82    1      -0.3089912735E+03      0.6414315593E+04      0.3238558085E+02     -0.2037966219E+00
          0                 2           2            51   87     1      -0.1263961336E+00      51   87    1      -0.7293585413E+02      0.6455560742E+03      0.6414315593E+04     -0.1263961336E+00
          0                 3           2           457  452     1       0.8229523710E-02      51   87    1      -0.3649202911E+01      0.3227806115E+02      0.6455560742E+03      0.8229523710E-02

    ------------------------------------------------
       NWT REQUIRED            3 OUTER ITERATIONS 
       AND A TOTAL OF          7 INNER ITERATIONS.
    ------------------------------------------------

 NO OUTPUT CONTROL FOR STRESS PERIOD  100   TIME STEP    5

 WELLS WITH REDUCED PUMPING FOR STRESS PERIOD   100 TIME STEP     5
   LAY   ROW   COL         APPL.Q          ACT.Q        GW-HEAD       CELL-BOT
     1    77   213  -0.230952E+04  -0.647169E+03   0.152175E+03   0.148000E+03
     1    92    77  -0.230952E+04  -0.387448E+03  -0.867308E+02  -0.930000E+02
     1    94    77  -0.230952E+04  -0.345363E+03  -0.964814E+02  -0.102000E+03
     1    94    73  -0.230952E+04  -0.416457E+03  -0.685340E+02  -0.740000E+02


 SOLVING FOR HEAD 
                                                   Max.-Head-Change                        Max.-Flux-Residual
  Residual-Control   Outer-Iter.   Inner-Iter.     Column Row Layer    Max.-Head-Change    Column Row Layer    Max.-Flux-Residual            L2-New               L2-Old           Solver-Max-Delh
          0                 1           3           265   78     1      -0.2000080763E+00     197   82    1      -0.3079230025E+03      0.6379265300E+04      0.3227806115E+02     -0.2000080763E+00
          0                 2           2           265   78     1       0.1721265247E-01     197   82    1       0.3078800560E+02      0.6379017198E+03      0.6379265300E+04      0.1721265247E-01

    ------------------------------------------------
       NWT REQUIRED            2 OUTER ITERATIONS 
       AND A TOTAL OF          5 INNER ITERATIONS.
    ------------------------------------------------

 NO OUTPUT CONTROL FOR STRESS PERIOD  100   TIME STEP    6

 WELLS WITH REDUCED PUMPING FOR STRESS PERIOD   100 TIME STEP     6
   LAY   ROW   COL         APPL.Q          ACT.Q        GW-HEAD       CELL-BOT
     1    77   213  -0.230952E+04  -0.645613E+03   0.152169E+03   0.148000E+03
     1    92    77  -0.230952E+04  -0.386678E+03  -0.867377E+02  -0.930000E+02
     1    94    77  -0.230952E+04  -0.344714E+03  -0.964872E+02  -0.102000E+03
     1    94    73  -0.230952E+04  -0.415713E+03  -0.685395E+02  -0.740000E+02


 SOLVING FOR HEAD 
                                                   Max.-Head-Change                        Max.-Flux-Residual
  Residual-Control   Outer-Iter.   Inner-Iter.     Column Row Layer    Max.-Head-Change    Column Row Layer    Max.-Flux-Residual            L2-New               L2-Old           Solver-Max-Delh
          0                 1           3           265   78     1      -0.1955783743E+00     197   82    1      -0.3068616928E+03      0.6354864022E+04      0.3189499146E+02     -0.1955783743E+00
          0                 2           2           265   78     1       0.1682947161E-01     197   82    1       0.3068190316E+02      0.6354663270E+03      0.6354864022E+04      0.1682947161E-01

    ------------------------------------------------
       NWT REQUIRED            2 OUTER ITERATIONS 
       AND A TOTAL OF          5 INNER ITERATIONS.
    ------------------------------------------------

 NO OUTPUT CONTROL FOR STRESS PERIOD  100   TIME STEP    7

 WELLS WITH REDUCED PUMPING FOR STRESS PERIOD   100 TIME STEP     7
   LAY   ROW   COL         APPL.Q          ACT.Q        GW-HEAD       CELL-BOT
     1    77   213  -0.230952E+04  -0.644150E+03   0.152164E+03   0.148000E+03
     1    92    77  -0.230952E+04  -0.386126E+03  -0.867427E+02  -0.930000E+02
     1    94    77  -0.230952E+04  -0.344088E+03  -0.964927E+02  -0.102000E+03
     1    94    73  -0.230952E+04  -0.415001E+03  -0.685447E+02  -0.740000E+02


 SOLVING FOR HEAD 
                                                   Max.-Head-Change                        Max.-Flux-Residual
  Residual-Control   Outer-Iter.   Inner-Iter.     Column Row Layer    Max.-Head-Change    Column Row Layer    Max.-Flux-Residual            L2-New               L2-Old           Solver-Max-Delh
          0                 1           3           265   78     1      -0.1907319618E+00     197   82    1      -0.3058127926E+03      0.6336880573E+04      0.3177318956E+02     -0.1907319618E+00
          0                 2           2            48   86     1      -0.4420488858E-01     197   82    1       0.3057704121E+02      0.6341809394E+03      0.6336880573E+04     -0.4420488858E-01

    ------------------------------------------------
       NWT REQUIRED            2 OUTER ITERATIONS 
       AND A TOTAL OF          5 INNER ITERATIONS.
    ------------------------------------------------

 NO OUTPUT CONTROL FOR STRESS PERIOD  100   TIME STEP    8

 WELLS WITH REDUCED PUMPING FOR STRESS PERIOD   100 TIME STEP     8
   LAY   ROW   COL         APPL.Q          ACT.Q        GW-HEAD       CELL-BOT
     1    77   213  -0.230952E+04  -0.642772E+03   0.152158E+03   0.148000E+03
     1    92    77  -0.230952E+04  -0.385693E+03  -0.867466E+02  -0.930000E+02
     1    94    77  -0.230952E+04  -0.343486E+03  -0.964980E+02  -0.102000E+03
     1    94    73  -0.230952E+04  -0.414322E+03  -0.685498E+02  -0.740000E+02


 SOLVING FOR HEAD 
                                                   Max.-Head-Change                        Max.-Flux-Residual
  Residual-Control   Outer-Iter.   Inner-Iter.     Column Row Layer    Max.-Head-Change    Column Row Layer    Max.-Flux-Residual            L2-New               L2-Old           Solver-Max-Delh
          0                 1           3           265   78     1      -0.1856457799E+00     197   82    1      -0.3047766016E+03      0.6322925329E+04      0.3170891300E+02     -0.1856457799E+00
          0                 2           2            50   87     1      -0.6434388926E-01      50   87    1      -0.3751321309E+02      0.6333799955E+03      0.6322925329E+04     -0.6434388926E-01

    ------------------------------------------------
       NWT REQUIRED            2 OUTER ITERATIONS 
       AND A TOTAL OF          5 INNER ITERATIONS.
    ------------------------------------------------

 NO OUTPUT CONTROL FOR STRESS PERIOD  100   TIME STEP    9

 WELLS WITH REDUCED PUMPING FOR STRESS PERIOD   100 TIME STEP     9
   LAY   ROW   COL         APPL.Q          ACT.Q        GW-HEAD       CELL-BOT
     1    77   213  -0.230952E+04  -0.641470E+03   0.152153E+03   0.148000E+03
     1    92    77  -0.230952E+04  -0.385325E+03  -0.867500E+02  -0.930000E+02
     1    94    77  -0.230952E+04  -0.342906E+03  -0.965032E+02  -0.102000E+03
     1    94    73  -0.230952E+04  -0.413672E+03  -0.685546E+02  -0.740000E+02


 SOLVING FOR HEAD 
                                                   Max.-Head-Change                        Max.-Flux-Residual
  Residual-Control   Outer-Iter.   Inner-Iter.     Column Row Layer    Max.-Head-Change    Column Row Layer    Max.-Flux-Residual            L2-New               L2-Old           Solver-Max-Delh
          0                 1           3           265   78     1      -0.1804599962E+00     197   82    1      -0.3037533236E+03      0.6311617727E+04      0.3166887972E+02     -0.1804599962E+00
          0                 2           2           265   78     1       0.1552813391E-01     197   82    1       0.3037114889E+02      0.6311397978E+03      0.6311617727E+04      0.1552813391E-01

    ------------------------------------------------
       NWT REQUIRED            2 OUTER ITERATIONS 
       AND A TOTAL OF          5 INNER ITERATIONS.
    ------------------------------------------------

 OUTPUT CONTROL FOR STRESS PERIOD  100   TIME STEP   10
    SAVE HEAD FOR ALL LAYERS

 WELLS WITH REDUCED PUMPING FOR STRESS PERIOD   100 TIME STEP    10
   LAY   ROW   COL         APPL.Q          ACT.Q        GW-HEAD       CELL-BOT
     1    77   213  -0.230952E+04  -0.640237E+03   0.152149E+03   0.148000E+03
     1    92    77  -0.230952E+04  -0.384995E+03  -0.867530E+02  -0.930000E+02
     1    94    77  -0.230952E+04  -0.342347E+03  -0.965081E+02  -0.102000E+03
     1    94    73  -0.230952E+04  -0.413050E+03  -0.685592E+02  -0.740000E+02


 HEAD WILL BE SAVED ON UNIT   51 AT END OF TIME STEP   10, STRESS PERIOD  100
1
  VOLUMETRIC BUDGET FOR ENTIRE MODEL AT END OF TIME STEP   10, STRESS PERIOD 100
  ------------------------------------------------------------------------------

     CUMULATIVE VOLUMES      L**3       RATES FOR THIS TIME STEP      L**3/T
     ------------------                 ------------------------

           IN:                                      IN:
           ---                                      ---
             STORAGE =   975926336.0000               STORAGE =      385130.0938
       CONSTANT HEAD =   156059984.0000         CONSTANT HEAD =       52194.1172
               WELLS =           0.0000                 WELLS =           0.0000
              DRAINS =           0.0000                DRAINS =           0.0000
                  ET =           0.0000                    ET =           0.0000
            RECHARGE =   517795968.0000              RECHARGE =      135305.1250

            TOTAL IN =  1649782272.0000              TOTAL IN =      572629.3750

          OUT:                                     OUT:
          ----                                     ----
             STORAGE =   244711824.0000               STORAGE =       16428.7656
       CONSTANT HEAD =           0.0000         CONSTANT HEAD =           0.0000
               WELLS =   980675136.0000                 WELLS =      478927.2812
              DRAINS =   299971552.0000                DRAINS =       52519.5469
                  ET =   121345808.0000                    ET =       22919.2051
            RECHARGE =      525047.1875              RECHARGE =           0.0000

           TOTAL OUT =  1647229440.0000             TOTAL OUT =      570794.8125

            IN - OUT =     2552832.0000              IN - OUT =        1834.5625

 PERCENT DISCREPANCY =           0.15     PERCENT DISCREPANCY =           0.32






         TIME SUMMARY AT END OF TIME STEP   10 IN STRESS PERIOD  100
                    SECONDS     MINUTES      HOURS       DAYS        YEARS
                    -----------------------------------------------------------
   TIME STEP LENGTH 2.62656E+05  4377.6      72.960      3.0400     8.32307E-03
 STRESS PERIOD TIME 2.62656E+06  43776.      729.60      30.400     8.32307E-02
         TOTAL TIME 2.62658E+08 4.37763E+06  72961.      3040.0      8.3231    
1

 Run end date and time (yyyy/mm/dd hh:mm:ss): 2019/03/22 16:16:20
 Elapsed run time: 42.345 Seconds

