                                  MODFLOW-2005     
      U.S. GEOLOGICAL SURVEY MODULAR FINITE-DIFFERENCE GROUND-WATER FLOW MODEL
                            VERSION 1.12.00 2/3/2017

 LIST FILE: gv6.lst
                         UNIT    7

 OPENING gv6.dis
 FILE TYPE:DIS   UNIT   29   STATUS:OLD    
 FORMAT:FORMATTED              ACCESS:SEQUENTIAL          

 OPENING gv6.bas
 FILE TYPE:BAS6   UNIT    1   STATUS:OLD    
 FORMAT:FORMATTED              ACCESS:SEQUENTIAL          

 OPENING gv6.lpf
 FILE TYPE:LPF   UNIT   11   STATUS:OLD    
 FORMAT:FORMATTED              ACCESS:SEQUENTIAL          

 OPENING gv6.wel
 FILE TYPE:WEL   UNIT   12   STATUS:OLD    
 FORMAT:FORMATTED              ACCESS:SEQUENTIAL          

 OPENING gv6.drn
 FILE TYPE:DRN   UNIT   13   STATUS:OLD    
 FORMAT:FORMATTED              ACCESS:SEQUENTIAL          

 OPENING gv6.rch
 FILE TYPE:RCH   UNIT   18   STATUS:OLD    
 FORMAT:FORMATTED              ACCESS:SEQUENTIAL          

 OPENING gv6.chd
 FILE TYPE:CHD   UNIT   40   STATUS:OLD    
 FORMAT:FORMATTED              ACCESS:SEQUENTIAL          

 OPENING gv6.oc
 FILE TYPE:OC   UNIT   22   STATUS:OLD    
 FORMAT:FORMATTED              ACCESS:SEQUENTIAL          

 OPENING gv6.pcg
 FILE TYPE:PCG   UNIT   19   STATUS:OLD    
 FORMAT:FORMATTED              ACCESS:SEQUENTIAL          

 OPENING gv6.cbb
 FILE TYPE:DATA(BINARY)   UNIT   50   STATUS:REPLACE
 FORMAT:BINARY                 ACCESS:SEQUENTIAL          

 OPENING gv6.hds
 FILE TYPE:DATA(BINARY)   UNIT   30   STATUS:REPLACE
 FORMAT:BINARY                 ACCESS:SEQUENTIAL          

 OPENING gv6.ddn
 FILE TYPE:DATA(BINARY)   UNIT   31   STATUS:REPLACE
 FORMAT:BINARY                 ACCESS:SEQUENTIAL          

 BAS -- BASIC PACKAGE, VERSION 7, 5/2/2005 INPUT READ FROM UNIT    1
 
 MODFLOW was compiled using mixed precision
 Precision of REAL variables:           6
 Precision of DOUBLE PRECISION variables:          15

 DISCRETIZATION INPUT DATA READ FROM UNIT   29
 # DIS package for  MODFLOW-2005, generated by Flopy.
    1 LAYERS       530 ROWS       506 COLUMNS
  544 STRESS PERIOD(S) IN SIMULATION
 MODEL TIME UNIT IS DAYS
 MODEL LENGTH UNIT IS METERS
  Confining bed flag for each layer:
   0

                     DELR =   200.000    

                     DELC =   200.000    



           TOP ELEVATION OF LAYER 1
 READING ON UNIT   29 WITH FORMAT: (FREE)              



             MODEL LAYER BOTTOM EL. FOR LAYER   1
 READING ON UNIT   29 WITH FORMAT: (FREE)              


 STRESS PERIOD     LENGTH       TIME STEPS     MULTIPLIER FOR DELT    SS FLAG
 ----------------------------------------------------------------------------
        1         1.000000          1                    1.200         SS
        2         31.00000          1                    1.200         TR
        3         28.00000          1                    1.200         TR
        4         31.00000          1                    1.200         TR
        5         30.00000          1                    1.200         TR
        6         31.00000          1                    1.200         TR
        7         30.00000          1                    1.200         TR
        8         31.00000          1                    1.200         TR
        9         31.00000          1                    1.200         TR
       10         30.00000          1                    1.200         TR
       11         31.00000          1                    1.200         TR
       12         30.00000          1                    1.200         TR
       13         31.00000          1                    1.200         TR
       14         31.00000          1                    1.200         TR
       15         28.00000          1                    1.200         TR
       16         31.00000          1                    1.200         TR
       17         30.00000          1                    1.200         TR
       18         31.00000          1                    1.200         TR
       19         30.00000          1                    1.200         TR
       20         31.00000          1                    1.200         TR
       21         31.00000          1                    1.200         TR
       22         30.00000          1                    1.200         TR
       23         31.00000          1                    1.200         TR
       24         30.00000          1                    1.200         TR
       25         31.00000          1                    1.200         TR
       26         31.00000          1                    1.200         TR
       27         28.00000          1                    1.200         TR
       28         31.00000          1                    1.200         TR
       29         30.00000          1                    1.200         TR
       30         31.00000          1                    1.200         TR
       31         30.00000          1                    1.200         TR
       32         31.00000          1                    1.200         TR
       33         31.00000          1                    1.200         TR
       34         30.00000          1                    1.200         TR
       35         31.00000          1                    1.200         TR
       36         30.00000          1                    1.200         TR
       37         31.00000          1                    1.200         TR
       38         31.00000          1                    1.200         TR
       39         29.00000          1                    1.200         TR
       40         31.00000          1                    1.200         TR
       41         30.00000          1                    1.200         TR
       42         31.00000          1                    1.200         TR
       43         30.00000          1                    1.200         TR
       44         31.00000          1                    1.200         TR
       45         31.00000          1                    1.200         TR
       46         30.00000          1                    1.200         TR
       47         31.00000          1                    1.200         TR
       48         30.00000          1                    1.200         TR
       49         31.00000          1                    1.200         TR
       50         31.00000          1                    1.200         TR
       51         28.00000          1                    1.200         TR
       52         31.00000          1                    1.200         TR
       53         30.00000          1                    1.200         TR
       54         31.00000          1                    1.200         TR
       55         30.00000          1                    1.200         TR
       56         31.00000          1                    1.200         TR
       57         31.00000          1                    1.200         TR
       58         30.00000          1                    1.200         TR
       59         31.00000          1                    1.200         TR
       60         30.00000          1                    1.200         TR
       61         31.00000          1                    1.200         TR
       62         31.00000          1                    1.200         TR
       63         28.00000          1                    1.200         TR
       64         31.00000          1                    1.200         TR
       65         30.00000          1                    1.200         TR
       66         31.00000          1                    1.200         TR
       67         30.00000          1                    1.200         TR
       68         31.00000          1                    1.200         TR
       69         31.00000          1                    1.200         TR
       70         30.00000          1                    1.200         TR
       71         31.00000          1                    1.200         TR
       72         30.00000          1                    1.200         TR
       73         31.00000          1                    1.200         TR
       74         31.00000          1                    1.200         TR
       75         28.00000          1                    1.200         TR
       76         31.00000          1                    1.200         TR
       77         30.00000          1                    1.200         TR
       78         31.00000          1                    1.200         TR
       79         30.00000          1                    1.200         TR
       80         31.00000          1                    1.200         TR
       81         31.00000          1                    1.200         TR
       82         30.00000          1                    1.200         TR
       83         31.00000          1                    1.200         TR
       84         30.00000          1                    1.200         TR
       85         31.00000          1                    1.200         TR
       86         31.00000          1                    1.200         TR
       87         29.00000          1                    1.200         TR
       88         31.00000          1                    1.200         TR
       89         30.00000          1                    1.200         TR
       90         31.00000          1                    1.200         TR
       91         30.00000          1                    1.200         TR
       92         31.00000          1                    1.200         TR
       93         31.00000          1                    1.200         TR
       94         30.00000          1                    1.200         TR
       95         31.00000          1                    1.200         TR
       96         30.00000          1                    1.200         TR
       97         31.00000          1                    1.200         TR
       98         31.00000          1                    1.200         TR
       99         28.00000          1                    1.200         TR
      100         31.00000          1                    1.200         TR
      101         30.00000          1                    1.200         TR
      102         31.00000          1                    1.200         TR
      103         30.00000          1                    1.200         TR
      104         31.00000          1                    1.200         TR
      105         31.00000          1                    1.200         TR
      106         30.00000          1                    1.200         TR
      107         31.00000          1                    1.200         TR
      108         30.00000          1                    1.200         TR
      109         31.00000          1                    1.200         TR
      110         31.00000          1                    1.200         TR
      111         28.00000          1                    1.200         TR
      112         31.00000          1                    1.200         TR
      113         30.00000          1                    1.200         TR
      114         31.00000          1                    1.200         TR
      115         30.00000          1                    1.200         TR
      116         31.00000          1                    1.200         TR
      117         31.00000          1                    1.200         TR
      118         30.00000          1                    1.200         TR
      119         31.00000          1                    1.200         TR
      120         30.00000          1                    1.200         TR
      121         31.00000          1                    1.200         TR
      122         31.00000          1                    1.200         TR
      123         28.00000          1                    1.200         TR
      124         31.00000          1                    1.200         TR
      125         30.00000          1                    1.200         TR
      126         31.00000          1                    1.200         TR
      127         30.00000          1                    1.200         TR
      128         31.00000          1                    1.200         TR
      129         31.00000          1                    1.200         TR
      130         30.00000          1                    1.200         TR
      131         31.00000          1                    1.200         TR
      132         30.00000          1                    1.200         TR
      133         31.00000          1                    1.200         TR
      134         31.00000          1                    1.200         TR
      135         29.00000          1                    1.200         TR
      136         31.00000          1                    1.200         TR
      137         30.00000          1                    1.200         TR
      138         31.00000          1                    1.200         TR
      139         30.00000          1                    1.200         TR
      140         31.00000          1                    1.200         TR
      141         31.00000          1                    1.200         TR
      142         30.00000          1                    1.200         TR
      143         31.00000          1                    1.200         TR
      144         30.00000          1                    1.200         TR
      145         31.00000          1                    1.200         TR
      146         31.00000          1                    1.200         TR
      147         28.00000          1                    1.200         TR
      148         31.00000          1                    1.200         TR
      149         30.00000          1                    1.200         TR
      150         31.00000          1                    1.200         TR
      151         30.00000          1                    1.200         TR
      152         31.00000          1                    1.200         TR
      153         31.00000          1                    1.200         TR
      154         30.00000          1                    1.200         TR
      155         31.00000          1                    1.200         TR
      156         30.00000          1                    1.200         TR
      157         31.00000          1                    1.200         TR
      158         31.00000          1                    1.200         TR
      159         28.00000          1                    1.200         TR
      160         31.00000          1                    1.200         TR
      161         30.00000          1                    1.200         TR
      162         31.00000          1                    1.200         TR
      163         30.00000          1                    1.200         TR
      164         31.00000          1                    1.200         TR
      165         31.00000          1                    1.200         TR
      166         30.00000          1                    1.200         TR
      167         31.00000          1                    1.200         TR
      168         30.00000          1                    1.200         TR
      169         31.00000          1                    1.200         TR
      170         31.00000          1                    1.200         TR
      171         28.00000          1                    1.200         TR
      172         31.00000          1                    1.200         TR
      173         30.00000          1                    1.200         TR
      174         31.00000          1                    1.200         TR
      175         30.00000          1                    1.200         TR
      176         31.00000          1                    1.200         TR
      177         31.00000          1                    1.200         TR
      178         30.00000          1                    1.200         TR
      179         31.00000          1                    1.200         TR
      180         30.00000          1                    1.200         TR
      181         31.00000          1                    1.200         TR
      182         31.00000          1                    1.200         TR
      183         29.00000          1                    1.200         TR
      184         31.00000          1                    1.200         TR
      185         30.00000          1                    1.200         TR
      186         31.00000          1                    1.200         TR
      187         30.00000          1                    1.200         TR
      188         31.00000          1                    1.200         TR
      189         31.00000          1                    1.200         TR
      190         30.00000          1                    1.200         TR
      191         31.00000          1                    1.200         TR
      192         30.00000          1                    1.200         TR
      193         31.00000          1                    1.200         TR
      194         31.00000          1                    1.200         TR
      195         28.00000          1                    1.200         TR
      196         31.00000          1                    1.200         TR
      197         30.00000          1                    1.200         TR
      198         31.00000          1                    1.200         TR
      199         30.00000          1                    1.200         TR
      200         31.00000          1                    1.200         TR
      201         31.00000          1                    1.200         TR
      202         30.00000          1                    1.200         TR
      203         31.00000          1                    1.200         TR
      204         30.00000          1                    1.200         TR
      205         31.00000          1                    1.200         TR
      206         31.00000          1                    1.200         TR
      207         28.00000          1                    1.200         TR
      208         31.00000          1                    1.200         TR
      209         30.00000          1                    1.200         TR
      210         31.00000          1                    1.200         TR
      211         30.00000          1                    1.200         TR
      212         31.00000          1                    1.200         TR
      213         31.00000          1                    1.200         TR
      214         30.00000          1                    1.200         TR
      215         31.00000          1                    1.200         TR
      216         30.00000          1                    1.200         TR
      217         31.00000          1                    1.200         TR
      218         31.00000          1                    1.200         TR
      219         28.00000          1                    1.200         TR
      220         31.00000          1                    1.200         TR
      221         30.00000          1                    1.200         TR
      222         31.00000          1                    1.200         TR
      223         30.00000          1                    1.200         TR
      224         31.00000          1                    1.200         TR
      225         31.00000          1                    1.200         TR
      226         30.00000          1                    1.200         TR
      227         31.00000          1                    1.200         TR
      228         30.00000          1                    1.200         TR
      229         31.00000          1                    1.200         TR
      230         31.00000          1                    1.200         TR
      231         29.00000          1                    1.200         TR
      232         31.00000          1                    1.200         TR
      233         30.00000          1                    1.200         TR
      234         31.00000          1                    1.200         TR
      235         30.00000          1                    1.200         TR
      236         31.00000          1                    1.200         TR
      237         31.00000          1                    1.200         TR
      238         30.00000          1                    1.200         TR
      239         31.00000          1                    1.200         TR
      240         30.00000          1                    1.200         TR
      241         31.00000          1                    1.200         TR
      242         31.00000          1                    1.200         TR
      243         28.00000          1                    1.200         TR
      244         31.00000          1                    1.200         TR
      245         30.00000          1                    1.200         TR
      246         31.00000          1                    1.200         TR
      247         30.00000          1                    1.200         TR
      248         31.00000          1                    1.200         TR
      249         31.00000          1                    1.200         TR
      250         30.00000          1                    1.200         TR
      251         31.00000          1                    1.200         TR
      252         30.00000          1                    1.200         TR
      253         31.00000          1                    1.200         TR
      254         31.00000          1                    1.200         TR
      255         28.00000          1                    1.200         TR
      256         31.00000          1                    1.200         TR
      257         30.00000          1                    1.200         TR
      258         31.00000          1                    1.200         TR
      259         30.00000          1                    1.200         TR
      260         31.00000          1                    1.200         TR
      261         31.00000          1                    1.200         TR
      262         30.00000          1                    1.200         TR
      263         31.00000          1                    1.200         TR
      264         30.00000          1                    1.200         TR
      265         31.00000          1                    1.200         TR
      266         31.00000          1                    1.200         TR
      267         28.00000          1                    1.200         TR
      268         31.00000          1                    1.200         TR
      269         30.00000          1                    1.200         TR
      270         31.00000          1                    1.200         TR
      271         30.00000          1                    1.200         TR
      272         31.00000          1                    1.200         TR
      273         31.00000          1                    1.200         TR
      274         30.00000          1                    1.200         TR
      275         31.00000          1                    1.200         TR
      276         30.00000          1                    1.200         TR
      277         31.00000          1                    1.200         TR
      278         31.00000          1                    1.200         TR
      279         29.00000          1                    1.200         TR
      280         31.00000          1                    1.200         TR
      281         30.00000          1                    1.200         TR
      282         31.00000          1                    1.200         TR
      283         30.00000          1                    1.200         TR
      284         31.00000          1                    1.200         TR
      285         31.00000          1                    1.200         TR
      286         30.00000          1                    1.200         TR
      287         31.00000          1                    1.200         TR
      288         30.00000          1                    1.200         TR
      289         31.00000          1                    1.200         TR
      290         31.00000          1                    1.200         TR
      291         28.00000          1                    1.200         TR
      292         31.00000          1                    1.200         TR
      293         30.00000          1                    1.200         TR
      294         31.00000          1                    1.200         TR
      295         30.00000          1                    1.200         TR
      296         31.00000          1                    1.200         TR
      297         31.00000          1                    1.200         TR
      298         30.00000          1                    1.200         TR
      299         31.00000          1                    1.200         TR
      300         30.00000          1                    1.200         TR
      301         31.00000          1                    1.200         TR
      302         31.00000          1                    1.200         TR
      303         28.00000          1                    1.200         TR
      304         31.00000          1                    1.200         TR
      305         30.00000          1                    1.200         TR
      306         31.00000          1                    1.200         TR
      307         30.00000          1                    1.200         TR
      308         31.00000          1                    1.200         TR
      309         31.00000          1                    1.200         TR
      310         30.00000          1                    1.200         TR
      311         31.00000          1                    1.200         TR
      312         30.00000          1                    1.200         TR
      313         31.00000          1                    1.200         TR
      314         31.00000          1                    1.200         TR
      315         28.00000          1                    1.200         TR
      316         31.00000          1                    1.200         TR
      317         30.00000          1                    1.200         TR
      318         31.00000          1                    1.200         TR
      319         30.00000          1                    1.200         TR
      320         31.00000          1                    1.200         TR
      321         31.00000          1                    1.200         TR
      322         30.00000          1                    1.200         TR
      323         31.00000          1                    1.200         TR
      324         30.00000          1                    1.200         TR
      325         31.00000          1                    1.200         TR
      326         31.00000          1                    1.200         TR
      327         29.00000          1                    1.200         TR
      328         31.00000          1                    1.200         TR
      329         30.00000          1                    1.200         TR
      330         31.00000          1                    1.200         TR
      331         30.00000          1                    1.200         TR
      332         31.00000          1                    1.200         TR
      333         31.00000          1                    1.200         TR
      334         30.00000          1                    1.200         TR
      335         31.00000          1                    1.200         TR
      336         30.00000          1                    1.200         TR
      337         31.00000          1                    1.200         TR
      338         31.00000          1                    1.200         TR
      339         28.00000          1                    1.200         TR
      340         31.00000          1                    1.200         TR
      341         30.00000          1                    1.200         TR
      342         31.00000          1                    1.200         TR
      343         30.00000          1                    1.200         TR
      344         31.00000          1                    1.200         TR
      345         31.00000          1                    1.200         TR
      346         30.00000          1                    1.200         TR
      347         31.00000          1                    1.200         TR
      348         30.00000          1                    1.200         TR
      349         31.00000          1                    1.200         TR
      350         31.00000          1                    1.200         TR
      351         28.00000          1                    1.200         TR
      352         31.00000          1                    1.200         TR
      353         30.00000          1                    1.200         TR
      354         31.00000          1                    1.200         TR
      355         30.00000          1                    1.200         TR
      356         31.00000          1                    1.200         TR
      357         31.00000          1                    1.200         TR
      358         30.00000          1                    1.200         TR
      359         31.00000          1                    1.200         TR
      360         30.00000          1                    1.200         TR
      361         31.00000          1                    1.200         TR
      362         31.00000          1                    1.200         TR
      363         28.00000          1                    1.200         TR
      364         31.00000          1                    1.200         TR
      365         30.00000          1                    1.200         TR
      366         31.00000          1                    1.200         TR
      367         30.00000          1                    1.200         TR
      368         31.00000          1                    1.200         TR
      369         31.00000          1                    1.200         TR
      370         30.00000          1                    1.200         TR
      371         31.00000          1                    1.200         TR
      372         30.00000          1                    1.200         TR
      373         31.00000          1                    1.200         TR
      374         31.00000          1                    1.200         TR
      375         29.00000          1                    1.200         TR
      376         31.00000          1                    1.200         TR
      377         30.00000          1                    1.200         TR
      378         31.00000          1                    1.200         TR
      379         30.00000          1                    1.200         TR
      380         31.00000          1                    1.200         TR
      381         31.00000          1                    1.200         TR
      382         30.00000          1                    1.200         TR
      383         31.00000          1                    1.200         TR
      384         30.00000          1                    1.200         TR
      385         31.00000          1                    1.200         TR
      386         31.00000          1                    1.200         TR
      387         28.00000          1                    1.200         TR
      388         31.00000          1                    1.200         TR
      389         30.00000          1                    1.200         TR
      390         31.00000          1                    1.200         TR
      391         30.00000          1                    1.200         TR
      392         31.00000          1                    1.200         TR
      393         31.00000          1                    1.200         TR
      394         30.00000          1                    1.200         TR
      395         31.00000          1                    1.200         TR
      396         30.00000          1                    1.200         TR
      397         31.00000          1                    1.200         TR
      398         31.00000          1                    1.200         TR
      399         28.00000          1                    1.200         TR
      400         31.00000          1                    1.200         TR
      401         30.00000          1                    1.200         TR
      402         31.00000          1                    1.200         TR
      403         30.00000          1                    1.200         TR
      404         31.00000          1                    1.200         TR
      405         31.00000          1                    1.200         TR
      406         30.00000          1                    1.200         TR
      407         31.00000          1                    1.200         TR
      408         30.00000          1                    1.200         TR
      409         31.00000          1                    1.200         TR
      410         31.00000          1                    1.200         TR
      411         28.00000          1                    1.200         TR
      412         31.00000          1                    1.200         TR
      413         30.00000          1                    1.200         TR
      414         31.00000          1                    1.200         TR
      415         30.00000          1                    1.200         TR
      416         31.00000          1                    1.200         TR
      417         31.00000          1                    1.200         TR
      418         30.00000          1                    1.200         TR
      419         31.00000          1                    1.200         TR
      420         30.00000          1                    1.200         TR
      421         31.00000          1                    1.200         TR
      422         31.00000          1                    1.200         TR
      423         29.00000          1                    1.200         TR
      424         31.00000          1                    1.200         TR
      425         30.00000          1                    1.200         TR
      426         31.00000          1                    1.200         TR
      427         30.00000          1                    1.200         TR
      428         31.00000          1                    1.200         TR
      429         31.00000          1                    1.200         TR
      430         30.00000          1                    1.200         TR
      431         31.00000          1                    1.200         TR
      432         30.00000          1                    1.200         TR
      433         31.00000          1                    1.200         TR
      434         31.00000          1                    1.200         TR
      435         28.00000          1                    1.200         TR
      436         31.00000          1                    1.200         TR
      437         30.00000          1                    1.200         TR
      438         31.00000          1                    1.200         TR
      439         30.00000          1                    1.200         TR
      440         31.00000          1                    1.200         TR
      441         31.00000          1                    1.200         TR
      442         30.00000          1                    1.200         TR
      443         31.00000          1                    1.200         TR
      444         30.00000          1                    1.200         TR
      445         31.00000          1                    1.200         TR
      446         31.00000          1                    1.200         TR
      447         28.00000          1                    1.200         TR
      448         31.00000          1                    1.200         TR
      449         30.00000          1                    1.200         TR
      450         31.00000          1                    1.200         TR
      451         30.00000          1                    1.200         TR
      452         31.00000          1                    1.200         TR
      453         31.00000          1                    1.200         TR
      454         30.00000          1                    1.200         TR
      455         31.00000          1                    1.200         TR
      456         30.00000          1                    1.200         TR
      457         31.00000          1                    1.200         TR
      458         31.00000          1                    1.200         TR
      459         28.00000          1                    1.200         TR
      460         31.00000          1                    1.200         TR
      461         30.00000          1                    1.200         TR
      462         31.00000          1                    1.200         TR
      463         30.00000          1                    1.200         TR
      464         31.00000          1                    1.200         TR
      465         31.00000          1                    1.200         TR
      466         30.00000          1                    1.200         TR
      467         31.00000          1                    1.200         TR
      468         30.00000          1                    1.200         TR
      469         31.00000          1                    1.200         TR
      470         31.00000          1                    1.200         TR
      471         29.00000          1                    1.200         TR
      472         31.00000          1                    1.200         TR
      473         30.00000          1                    1.200         TR
      474         31.00000          1                    1.200         TR
      475         30.00000          1                    1.200         TR
      476         31.00000          1                    1.200         TR
      477         31.00000          1                    1.200         TR
      478         30.00000          1                    1.200         TR
      479         31.00000          1                    1.200         TR
      480         30.00000          1                    1.200         TR
      481         31.00000          1                    1.200         TR
      482         31.00000          1                    1.200         TR
      483         28.00000          1                    1.200         TR
      484         31.00000          1                    1.200         TR
      485         30.00000          1                    1.200         TR
      486         31.00000          1                    1.200         TR
      487         30.00000          1                    1.200         TR
      488         31.00000          1                    1.200         TR
      489         31.00000          1                    1.200         TR
      490         30.00000          1                    1.200         TR
      491         31.00000          1                    1.200         TR
      492         30.00000          1                    1.200         TR
      493         31.00000          1                    1.200         TR
      494         31.00000          1                    1.200         TR
      495         28.00000          1                    1.200         TR
      496         31.00000          1                    1.200         TR
      497         30.00000          1                    1.200         TR
      498         31.00000          1                    1.200         TR
      499         30.00000          1                    1.200         TR
      500         31.00000          1                    1.200         TR
      501         31.00000          1                    1.200         TR
      502         30.00000          1                    1.200         TR
      503         31.00000          1                    1.200         TR
      504         30.00000          1                    1.200         TR
      505         31.00000          1                    1.200         TR
      506         31.00000          1                    1.200         TR
      507         28.00000          1                    1.200         TR
      508         31.00000          1                    1.200         TR
      509         30.00000          1                    1.200         TR
      510         31.00000          1                    1.200         TR
      511         30.00000          1                    1.200         TR
      512         31.00000          1                    1.200         TR
      513         31.00000          1                    1.200         TR
      514         30.00000          1                    1.200         TR
      515         31.00000          1                    1.200         TR
      516         30.00000          1                    1.200         TR
      517         31.00000          1                    1.200         TR
      518         31.00000          1                    1.200         TR
      519         29.00000          1                    1.200         TR
      520         31.00000          1                    1.200         TR
      521         30.00000          1                    1.200         TR
      522         31.00000          1                    1.200         TR
      523         30.00000          1                    1.200         TR
      524         31.00000          1                    1.200         TR
      525         31.00000          1                    1.200         TR
      526         30.00000          1                    1.200         TR
      527         31.00000          1                    1.200         TR
      528         30.00000          1                    1.200         TR
      529         31.00000          1                    1.200         TR
      530         31.00000          1                    1.200         TR
      531         28.00000          1                    1.200         TR
      532         31.00000          1                    1.200         TR
      533         30.00000          1                    1.200         TR
      534         31.00000          1                    1.200         TR
      535         30.00000          1                    1.200         TR
      536         31.00000          1                    1.200         TR
      537         31.00000          1                    1.200         TR
      538         30.00000          1                    1.200         TR
      539         31.00000          1                    1.200         TR
      540         30.00000          1                    1.200         TR
      541         31.00000          1                    1.200         TR
      542         31.00000          1                    1.200         TR
      543         28.00000          1                    1.200         TR
      544         31.00000          1                    1.200         TR

 COMBINED STEADY-STATE AND TRANSIENT SIMULATION



 
 # BAS6 package for  MODFLOW-2005, generated by Flopy.                           



                     BOUNDARY ARRAY FOR LAYER   1
 READING ON UNIT    1 WITH FORMAT: (FREE)              

 AQUIFER HEAD WILL BE SET TO   999.00     AT ALL NO-FLOW NODES (IBOUND=0).



                       INITIAL HEAD FOR LAYER   1
 READING ON UNIT    1 WITH FORMAT: (FREE)              
 # OC package for  MODFLOW-2005, generated by Flopy.

 OUTPUT CONTROL IS SPECIFIED ONLY AT TIME STEPS FOR WHICH OUTPUT IS DESIRED
 HEAD PRINT FORMAT CODE IS   0    DRAWDOWN PRINT FORMAT CODE IS   0
 HEADS WILL BE SAVED ON UNIT   30    DRAWDOWNS WILL BE SAVED ON UNIT   31

 LPF -- LAYER-PROPERTY FLOW PACKAGE, VERSION 7, 5/2/2005
         INPUT READ FROM UNIT   11
 # LPF package for  MODFLOW-2005, generated by Flopy.
 CELL-BY-CELL FLOWS WILL BE SAVED ON UNIT   50
 HEAD AT CELLS THAT CONVERT TO DRY= -1.00000E+30
 No named parameters

   LAYER FLAGS:
 LAYER       LAYTYP        LAYAVG         CHANI        LAYVKA        LAYWET
 ---------------------------------------------------------------------------
    1             1             0    -1.000E+00             0             0

   INTERPRETATION OF LAYER FLAGS:
                        INTERBLOCK     HORIZONTAL    DATA IN
         LAYER TYPE   TRANSMISSIVITY   ANISOTROPY   ARRAY VKA   WETTABILITY
 LAYER      (LAYTYP)      (LAYAVG)       (CHANI)      (LAYVKA)      (LAYWET)
 ---------------------------------------------------------------------------
    1   CONVERTIBLE      HARMONIC      VARIABLE    VERTICAL K  NON-WETTABLE

 WETTING CAPABILITY IS NOT ACTIVE IN ANY LAYER



              HYD. COND. ALONG ROWS FOR LAYER   1
 READING ON UNIT   11 WITH FORMAT: (FREE)              

   HORIZ. ANI. (COL./ROW) =   1.00000     FOR LAYER   1



                VERTICAL HYD. COND. FOR LAYER   1
 READING ON UNIT   11 WITH FORMAT: (FREE)              



                   SPECIFIC STORAGE FOR LAYER   1
 READING ON UNIT   11 WITH FORMAT: (FREE)              



                     SPECIFIC YIELD FOR LAYER   1
 READING ON UNIT   11 WITH FORMAT: (FREE)              

 WEL -- WELL PACKAGE, VERSION 7, 5/2/2005 INPUT READ FROM UNIT   12
 # WEL package for  MODFLOW-2005, generated by Flopy.
 No named parameters
 MAXIMUM OF    518 ACTIVE WELLS AT ONE TIME
 CELL-BY-CELL FLOWS WILL BE SAVED ON UNIT   50
 AUXILIARY WELL VARIABLE: IFACE           


     0 Well parameters

 DRN -- DRAIN PACKAGE, VERSION 7, 5/2/2005 INPUT READ FROM UNIT   13
 # DRN package for  MODFLOW-2005, generated by Flopy.
 No named parameters
 MAXIMUM OF    681 ACTIVE DRAINS AT ONE TIME
 CELL-BY-CELL FLOWS WILL BE SAVED ON UNIT   50
 AUXILIARY DRAIN VARIABLE: IFACE           


     0 Drain parameters

 RCH -- RECHARGE PACKAGE, VERSION 7, 5/2/2005 INPUT READ FROM UNIT   18
 # RCH package for  MODFLOW-2005, generated by Flopy.
 No named parameters
 OPTION 3 -- RECHARGE TO HIGHEST ACTIVE NODE IN EACH VERTICAL COLUMN
 CELL-BY-CELL FLOWS WILL BE SAVED ON UNIT   50


     0 Recharge parameters

 CHD -- TIME-VARIANT SPECIFIED-HEAD OPTION, VERSION 7, 5/2/2005
 INPUT READ FROM UNIT   40
 # CHD package for  MODFLOW-2005, generated by Flopy.
 No named parameters
 MAXIMUM OF      8 TIME-VARIANT SPECIFIED-HEAD CELLS AT ONE TIME


     0 TIME-VARIANT SPECIFIED-HEAD PARAMETERS

 PCG -- CONJUGATE-GRADIENT SOLUTION PACKAGE, VERSION 7, 5/2/2005
 # PCG package for  MODFLOW-2005, generated by Flopy.
 MAXIMUM OF   1000 CALLS OF SOLUTION ROUTINE
 MAXIMUM OF     50 INTERNAL ITERATIONS PER CALL TO SOLUTION ROUTINE
 MATRIX PRECONDITIONING TYPE :    1



                                    SOLUTION BY THE CONJUGATE-GRADIENT METHOD
                                   -------------------------------------------
                    MAXIMUM NUMBER OF CALLS TO PCG ROUTINE =     1000
                        MAXIMUM ITERATIONS PER CALL TO PCG =       50
                               MATRIX PRECONDITIONING TYPE =        1
        RELAXATION FACTOR (ONLY USED WITH PRECOND. TYPE 1) =    0.10000E+01
 PARAMETER OF POLYNOMIAL PRECOND. = 2 (2) OR IS CALCULATED :        2
                         HEAD CHANGE CRITERION FOR CLOSURE =    0.10000E-01
                     RESIDUAL CHANGE CRITERION FOR CLOSURE =    0.10000E+01
            PCG HEAD AND RESIDUAL CHANGE PRINTOUT INTERVAL =        5
     PRINTING FROM SOLVER IS LIMITED(1) OR SUPPRESSED (>1) =        0
                            STEADY-STATE DAMPING PARAMETER =    0.10000E+01
                               TRANSIENT DAMPING PARAMETER =    0.10000E+01
1
                            STRESS PERIOD NO.    1, LENGTH =   1.000000    
                            -----------------------------------------------

                              NUMBER OF TIME STEPS =     1

                               MULTIPLIER FOR DELT =     1.200

                            INITIAL TIME STEP SIZE =   1.000000    

 WELL NO.  LAYER   ROW   COL   STRESS RATE         IFACE           
 ------------------------------------------------------------------
      1      1    434    429      -1037.           0.000    
      2      1    457    430      -1778.           0.000    
      3      1    470    430      -330.9           0.000    
      4      1    455    431      -1481.           0.000    
      5      1    472    431      -330.9           0.000    
      6      1    488    431      -28.80           0.000    
      7      1    491    432       0.000           0.000    
      8      1    435    432      -222.2           0.000    
      9      1    436    432      -888.8           0.000    
     10      1    498    432       0.000           0.000    
     11      1    498    433      -28.80           0.000    
     12      1    449    434      -888.8           0.000    
     13      1    447    434      -814.7           0.000    
     14      1    462    441     -0.2607           0.000    
     15      1    461    442       0.000           0.000    
     16      1    462    442     -0.5793           0.000    
     17      1    465    442       0.000           0.000    
     18      1    468    444     -0.1390           0.000    
     19      1    487    451       0.000           0.000    
     20      1    454    451     -0.3476           0.000    
     21      1    502    461       0.000           0.000    
     22      1    508    466       0.000           0.000    
     23      1    509    467       0.000           0.000    
     24      1    511    468       0.000           0.000    
     25      1    513    469       0.000           0.000    
     26      1    515    471     -0.8922           0.000    
     27      1    518    477     -0.8476           0.000    
     28      1    521    480     -0.4461           0.000    
     29      1    525    485       0.000           0.000    
     30      1    526    486       0.000           0.000    
     31      1    329    357      -712.2           0.000    
     32      1    339    359       0.000           0.000    
     33      1    340    361      -686.8           0.000    
     34      1    340    361      -1017.           0.000    
     35      1    340    362      -1017.           0.000    
     36      1    340    363       0.000           0.000    
     37      1    342    365      -264.5           0.000    
     38      1    342    365       0.000           0.000    
     39      1    343    366      -763.1           0.000    
     40      1    341    367       0.000           0.000    
     41      1    341    367      -254.4           0.000    
     42      1    341    368      -81.39           0.000    
     43      1    342    368      -138.8           0.000    
     44      1    342    368       0.000           0.000    
     45      1    344    371      -264.5           0.000    
     46      1    344    373       0.000           0.000    
     47      1    346    374      -366.3           0.000    
     48      1    344    374      -183.1           0.000    
     49      1    348    374      -559.6           0.000    
     50      1    350    376       0.000           0.000    
     51      1    350    376       0.000           0.000    
     52      1    354    377      -712.2           0.000    
     53      1    358    381      -915.7           0.000    
     54      1    363    385       0.000           0.000    
     55      1    362    386      -610.5           0.000    
     56      1    362    386       0.000           0.000    
     57      1    365    387      -712.2           0.000    
     58      1    364    387       0.000           0.000    
     59      1    368    393       0.000           0.000    
     60      1    368    394      -16.28           0.000    
     61      1    371    396      -813.9           0.000    
     62      1    370    398       0.000           0.000    
     63      1    372    399      -305.2           0.000    
     64      1    371    400       0.000           0.000    
     65      1    376    400      -193.3           0.000    
     66      1    373    401      -630.8           0.000    
     67      1    376    402      -305.2           0.000    
     68      1    383    403      -254.4           0.000    
     69      1    384    403      -407.0           0.000    
     70      1    380    403      -1017.           0.000    
     71      1    381    403      -432.4           0.000    
     72      1    382    404      -813.9           0.000    
     73      1    389    410      -793.6           0.000    
     74      1    393    411      -610.5           0.000    
     75      1    396    413      -203.5           0.000    
     76      1    411    414       0.000           0.000    
     77      1    397    414      -773.2           0.000    
     78      1    400    414      -1017.           0.000    
     79      1    396    415      -1017.           0.000    
     80      1    409    415      -1302.           0.000    
     81      1    397    415      -1017.           0.000    
     82      1    410    416      -61.05           0.000    
     83      1    410    416       0.000           0.000    
     84      1    398    416       0.000           0.000    
     85      1    412    416       0.000           0.000    
     86      1    412    417      -763.1           0.000    
     87      1    417    417      -1017.           0.000    
     88      1    408    417      -1017.           0.000    
     89      1    415    417      -407.0           0.000    
     90      1    421    418       0.000           0.000    
     91      1    406    418      -1017.           0.000    
     92      1    410    418      -1221.           0.000    
     93      1    420    418       0.000           0.000    
     94      1    420    418       0.000           0.000    
     95      1    419    418      -1017.           0.000    
     96      1    422    420       0.000           0.000    
     97      1    181    284       0.000           0.000    
     98      1    180    284       0.000           0.000    
     99      1    183    284       0.000           0.000    
    100      1    183    285      -2553.           0.000    
    101      1    178    285       0.000           0.000    
    102      1    178    285       0.000           0.000    
    103      1    183    285       0.000           0.000    
    104      1    180    285       0.000           0.000    
    105      1    186    285       0.000           0.000    
    106      1    177    286       0.000           0.000    
    107      1    184    286       0.000           0.000    
    108      1    175    286       0.000           0.000    
    109      1    185    286       0.000           0.000    
    110      1    176    286       0.000           0.000    
    111      1    184    286      -2262.           0.000    
    112      1    176    286       0.000           0.000    
    113      1    182    287      -674.8           0.000    
    114      1    172    287       0.000           0.000    
    115      1    170    287       0.000           0.000    
    116      1    176    287       0.000           0.000    
    117      1    186    288       0.000           0.000    
    118      1    189    288       0.000           0.000    
    119      1    185    288       0.000           0.000    
    120      1    186    289       0.000           0.000    
    121      1    189    289       0.000           0.000    
    122      1    189    289      -894.8           0.000    
    123      1    192    289      -2262.           0.000    
    124      1    191    289      -70.19           0.000    
    125      1    189    289       0.000           0.000    
    126      1    190    290       0.000           0.000    
    127      1    189    290       0.000           0.000    
    128      1    191    290       0.000           0.000    
    129      1    190    290       0.000           0.000    
    130      1    197    292      -3232.           0.000    
    131      1    198    292      -3555.           0.000    
    132      1    200    293       0.000           0.000    
    133      1    199    294      -86.40           0.000    
    134      1    214    294      -1633.           0.000    
    135      1    215    295       0.000           0.000    
    136      1    215    295       0.000           0.000    
    137      1    218    295       0.000           0.000    
    138      1    220    295      -1293.           0.000    
    139      1    199    295       0.000           0.000    
    140      1    212    295      -2262.           0.000    
    141      1    211    296      -2262.           0.000    
    142      1    200    296       0.000           0.000    
    143      1    200    296      -86.40           0.000    
    144      1    208    297      -3232.           0.000    
    145      1    220    297       0.000           0.000    
    146      1    206    297      -3232.           0.000    
    147      1    202    297      -2586.           0.000    
    148      1    207    297      -3232.           0.000    
    149      1    221    297       0.000           0.000    
    150      1    198    297       0.000           0.000    
    151      1    198    297       0.000           0.000    
    152      1    198    297       0.000           0.000    
    153      1    217    297      -2586.           0.000    
    154      1    220    297      -121.8           0.000    
    155      1    197    297       0.000           0.000    
    156      1    204    298       0.000           0.000    
    157      1    222    298      -1939.           0.000    
    158      1    222    298       0.000           0.000    
    159      1    198    298      -2986.           0.000    
    160      1    224    300       0.000           0.000    
    161      1    225    302       0.000           0.000    
    162      1    227    303      -2747.           0.000    
    163      1    246    303      -971.9           0.000    
    164      1    242    304       0.000           0.000    
    165      1    243    304       0.000           0.000    
    166      1    246    304       0.000           0.000    
    167      1    246    304      -971.9           0.000    
    168      1    242    304      -25.37           0.000    
    169      1    250    306      -771.4           0.000    
    170      1    230    306       0.000           0.000    
    171      1    233    306      -2160.           0.000    
    172      1    252    306      -1851.           0.000    
    173      1    252    306       0.000           0.000    
    174      1    257    306      -324.0           0.000    
    175      1    257    307       0.000           0.000    
    176      1    253    307       0.000           0.000    
    177      1    252    307      -1543.           0.000    
    178      1    262    309      -1620.           0.000    
    179      1    264    310      -1003.           0.000    
    180      1    264    312      -1234.           0.000    
    181      1    265    313       0.000           0.000    
    182      1    271    318      -833.1           0.000    
    183      1    272    320      -1234.           0.000    
    184      1    280    324      -730.9           0.000    
    185      1    279    324       0.000           0.000    
    186      1    284    324      -6971.           0.000    
    187      1    282    324       0.000           0.000    
    188      1    285    324       0.000           0.000    
    189      1    286    325       0.000           0.000    
    190      1    288    325       0.000           0.000    
    191      1    279    325       0.000           0.000    
    192      1    279    325       0.000           0.000    
    193      1    283    325       0.000           0.000    
    194      1    290    326       0.000           0.000    
    195      1    285    327       0.000           0.000    
    196      1    285    327      -971.9           0.000    
    197      1    292    327       0.000           0.000    
    198      1    294    329       0.000           0.000    
    199      1    294    330      -3654.           0.000    
    200      1    295    330       0.000           0.000    
    201      1    299    332      -2928.           0.000    
    202      1    301    332       0.000           0.000    
    203      1    299    333       0.000           0.000    
    204      1    300    334      -1172.           0.000    
    205      1    302    334      -771.4           0.000    
    206      1    301    334       0.000           0.000    
    207      1    305    339      -956.5           0.000    
    208      1    305    339       0.000           0.000    
    209      1    307    340      -617.1           0.000    
    210      1    310    342       0.000           0.000    
    211      1    309    342      -308.5           0.000    
    212      1    311    343      -6479.           0.000    
    213      1    313    343       0.000           0.000    
    214      1    322    347       0.000           0.000    
    215      1    325    349       0.000           0.000    
    216      1    325    349       0.000           0.000    
    217      1    101    250       0.000           0.000    
    218      1     87    250       0.000           0.000    
    219      1     87    251       0.000           0.000    
    220      1     87    252       0.000           0.000    
    221      1     88    252       0.000           0.000    
    222      1     92    252      -523.8           0.000    
    223      1     92    253      -915.7           0.000    
    224      1     92    253       0.000           0.000    
    225      1     90    253      -1255.           0.000    
    226      1     96    253      -190.2           0.000    
    227      1     88    253      -24.71           0.000    
    228      1     86    254      -2440.           0.000    
    229      1     97    256       0.000           0.000    
    230      1     91    257       0.000           0.000    
    231      1     91    257      -486.8           0.000    
    232      1     92    257      -778.3           0.000    
    233      1     93    257      -287.5           0.000    
    234      1     92    258      -493.4           0.000    
    235      1     92    258      -548.0           0.000    
    236      1     98    258       0.000           0.000    
    237      1    102    261      -5577.           0.000    
    238      1     97    263       0.000           0.000    
    239      1     96    263      -902.4           0.000    
    240      1     94    263       0.000           0.000    
    241      1     94    263       0.000           0.000    
    242      1     97    263       0.000           0.000    
    243      1     96    263       0.000           0.000    
    244      1     96    263       0.000           0.000    
    245      1     94    263       0.000           0.000    
    246      1     95    263      -1066.           0.000    
    247      1     96    263      -877.9           0.000    
    248      1     96    264      -1194.           0.000    
    249      1    102    264       0.000           0.000    
    250      1    107    264      -129.3           0.000    
    251      1     97    266      -190.2           0.000    
    252      1    109    266      -1394.           0.000    
    253      1    104    266      -1515.           0.000    
    254      1    104    266      -696.0           0.000    
    255      1    104    267       0.000           0.000    
    256      1    104    267      -785.0           0.000    
    257      1    104    267      -1567.           0.000    
    258      1    104    267       0.000           0.000    
    259      1    104    267       0.000           0.000    
    260      1    106    267       0.000           0.000    
    261      1    105    267       0.000           0.000    
    262      1    107    269       0.000           0.000    
    263      1    104    270      -697.1           0.000    
    264      1    107    271       0.000           0.000    
    265      1    107    271       0.000           0.000    
    266      1    106    271      -205.1           0.000    
    267      1    107    274       0.000           0.000    
    268      1    107    275       0.000           0.000    
    269      1    114    275      -1046.           0.000    
    270      1    110    276       0.000           0.000    
    271      1    110    276      -4140.           0.000    
    272      1    108    276       0.000           0.000    
    273      1    111    277      -4017.           0.000    
    274      1    106    277       0.000           0.000    
    275      1    114    278       0.000           0.000    
    276      1    114    279       0.000           0.000    
    277      1    111    279       0.000           0.000    
    278      1    112    280       0.000           0.000    
    279      1    115    282       0.000           0.000    
    280      1    151    283       0.000           0.000    
    281      1    116    284       0.000           0.000    
    282      1    147    284       0.000           0.000    
    283      1    117    284       0.000           0.000    
    284      1    127    285       0.000           0.000    
    285      1    117    285       0.000           0.000    
    286      1    117    285       0.000           0.000    
    287      1    158    285      -6274.           0.000    
    288      1    154    285       0.000           0.000    
    289      1    152    285       0.000           0.000    
    290      1    114    285       0.000           0.000    
    291      1    158    285       0.000           0.000    
    292      1    140    285      -3179.           0.000    
    293      1    141    285      -2288.           0.000    
    294      1    147    285      -278.8           0.000    
    295      1    160    285       0.000           0.000    
    296      1    119    285      -1022.           0.000    
    297      1    119    285       0.000           0.000    
    298      1    155    286       0.000           0.000    
    299      1    153    286       0.000           0.000    
    300      1    135    286       0.000           0.000    
    301      1    142    286       0.000           0.000    
    302      1    118    286      -1122.           0.000    
    303      1    153    286       0.000           0.000    
    304      1    163    286      -6274.           0.000    
    305      1    161    286       0.000           0.000    
    306      1    118    286       0.000           0.000    
    307      1    157    286       0.000           0.000    
    308      1    145    286       0.000           0.000    
    309      1    160    286       0.000           0.000    
    310      1    155    286       0.000           0.000    
    311      1    162    286       0.000           0.000    
    312      1    135    287      -1394.           0.000    
    313      1    135    287       0.000           0.000    
    314      1    163    287       0.000           0.000    
    315      1    156    287       0.000           0.000    
    316      1    134    287       0.000           0.000    
    317      1    156    287       0.000           0.000    
    318      1    164    287      -2579.           0.000    
    319      1    164    288       0.000           0.000    
    320      1    170    288      -3485.           0.000    
    321      1    167    288       0.000           0.000    
    322      1    168    288      -422.9           0.000    
    323      1    168    288      -787.8           0.000    
    324      1    168    288      -290.7           0.000    
    325      1    168    288      -1093.           0.000    
    326      1    163    288       0.000           0.000    
    327      1    169    288      -4182.           0.000    
    328      1    170    289       0.000           0.000    
    329      1     97    293       0.000           0.000    
    330      1     93    297       0.000           0.000    
    331      1     93    297       0.000           0.000    
    332      1     52    173      -20.29           0.000    
    333      1     51    173      -40.59           0.000    
    334      1     54    174      -443.9           0.000    
    335      1     51    174      -25.37           0.000    
    336      1     57    175      -1015.           0.000    
    337      1     50    175      -63.42           0.000    
    338      1     55    175      -1205.           0.000    
    339      1     55    175      -1078.           0.000    
    340      1     49    176      -25.37           0.000    
    341      1     57    176      -317.1           0.000    
    342      1     52    178      -25.37           0.000    
    343      1     52    179      -25.37           0.000    
    344      1     51    179      -12.68           0.000    
    345      1     48    180       0.000           0.000    
    346      1     52    180      -68.49           0.000    
    347      1     49    180       0.000           0.000    
    348      1     48    180       0.000           0.000    
    349      1     48    181       0.000           0.000    
    350      1     55    181      -228.3           0.000    
    351      1     48    181       0.000           0.000    
    352      1     48    181       0.000           0.000    
    353      1     49    181       0.000           0.000    
    354      1     50    184      -634.2           0.000    
    355      1     43    187      -786.3           0.000    
    356      1     45    187      -634.2           0.000    
    357      1     45    188      -63.42           0.000    
    358      1     45    189      -116.7           0.000    
    359      1     52    194      -761.0           0.000    
    360      1     48    194      -126.8           0.000    
    361      1     47    196      -634.2           0.000    
    362      1     49    196      -792.7           0.000    
    363      1     48    197      -126.8           0.000    
    364      1     44    198      -634.2           0.000    
    365      1     43    200      -887.8           0.000    
    366      1     56    200       0.000           0.000    
    367      1     53    200       0.000           0.000    
    368      1     50    201      -253.7           0.000    
    369      1     51    201      -761.0           0.000    
    370      1     55    202       0.000           0.000    
    371      1     54    202       0.000           0.000    
    372      1     43    202      -494.6           0.000    
    373      1     46    203      -25.37           0.000    
    374      1     52    203      -761.0           0.000    
    375      1     46    204      -50.73           0.000    
    376      1     47    205      -38.05           0.000    
    377      1     50    206      -634.2           0.000    
    378      1     50    207      -25.37           0.000    
    379      1     50    207      -25.37           0.000    
    380      1     47    208      -634.2           0.000    
    381      1     50    209      -69.76           0.000    
    382      1     51    209      -25.37           0.000    
    383      1     44    209      -253.7           0.000    
    384      1     51    210      -25.37           0.000    
    385      1     48    210      -190.2           0.000    
    386      1     52    211      -165.4           0.000    
    387      1     52    211      -621.5           0.000    
    388      1     50    211      -67.60           0.000    
    389      1     52    212      -608.8           0.000    
    390      1     50    213      -25.37           0.000    
    391      1     49    213      -25.37           0.000    
    392      1     48    214      -1015.           0.000    
    393      1     52    216      -25.37           0.000    
    394      1     55    216      -121.8           0.000    
    395      1     53    217      -317.1           0.000    
    396      1     54    218      -205.1           0.000    
    397      1     47    218      -309.5           0.000    
    398      1     57    218      -494.6           0.000    
    399      1     59    219      -570.7           0.000    
    400      1     57    219      -107.8           0.000    
    401      1     55    219      -152.2           0.000    
    402      1     58    219      -1015.           0.000    
    403      1     56    219       0.000           0.000    
    404      1     57    219       0.000           0.000    
    405      1     62    220      -1268.           0.000    
    406      1     63    220       0.000           0.000    
    407      1     64    221      -1522.           0.000    
    408      1     63    221      -1015.           0.000    
    409      1     63    221      -1015.           0.000    
    410      1     65    223      -755.8           0.000    
    411      1     63    224      -82.44           0.000    
    412      1     63    225      -1091.           0.000    
    413      1     75    225      -1522.           0.000    
    414      1     65    227      -443.9           0.000    
    415      1     73    228      -1015.           0.000    
    416      1     76    229      -951.2           0.000    
    417      1     75    229      -545.4           0.000    
    418      1     69    229      -190.2           0.000    
    419      1     74    230      -1015.           0.000    
    420      1     69    231      -634.2           0.000    
    421      1     67    232      -1015.           0.000    
    422      1     73    233       0.000           0.000    
    423      1     68    233       0.000           0.000    
    424      1     76    234       0.000           0.000    
    425      1     69    234       0.000           0.000    
    426      1     72    234       0.000           0.000    
    427      1     74    236       0.000           0.000    
    428      1     74    236       0.000           0.000    
    429      1     71    238       0.000           0.000    
    430      1     74    240       0.000           0.000    
    431      1     75    243       0.000           0.000    
    432      1     83    245       0.000           0.000    
    433      1     73     29      -1.387           0.000    
    434      1     71     33      -1.387           0.000    
    435      1     75     51      -1.387           0.000    
    436      1    101     95     -0.3083           0.000    
    437      1     77    105       0.000           0.000    
    438      1     77    107      -9.883           0.000    
    439      1     76    107      -29.65           0.000    
    440      1     76    108      -9.883           0.000    
    441      1     76    109      -19.77           0.000    
    442      1     75    110      -38.54           0.000    
    443      1     75    111      -39.53           0.000    
    444      1     74    115      -191.4           0.000    
    445      1     73    117      -37.56           0.000    
    446      1     72    118      -365.7           0.000    
    447      1     72    120      -296.5           0.000    
    448      1     71    122      -102.8           0.000    
    449      1     71    124       0.000           0.000    
    450      1     71    128      -988.3           0.000    
    451      1     67    132      -711.6           0.000    
    452      1     68    134      -375.6           0.000    
    453      1     72    135      -790.6           0.000    
    454      1     68    135      -19.77           0.000    
    455      1     66    135      -889.5           0.000    
    456      1     64    136      -177.9           0.000    
    457      1     68    138      -376.3           0.000    
    458      1     70    138      -286.6           0.000    
    459      1     71    138      -711.6           0.000    
    460      1     66    139      -296.5           0.000    
    461      1     66    140      -523.8           0.000    
    462      1     70    141      -345.9           0.000    
    463      1     64    142      -1779.           0.000    
    464      1     69    145      -840.1           0.000    
    465      1     67    145      -54.36           0.000    
    466      1     69    147      -148.2           0.000    
    467      1     68    147      -49.42           0.000    
    468      1     62    148      -494.2           0.000    
    469      1     69    148      -138.4           0.000    
    470      1     65    149      -19.77           0.000    
    471      1     67    149      -19.77           0.000    
    472      1     68    149      -39.53           0.000    
    473      1     67    150      -79.06           0.000    
    474      1     68    150      -65.23           0.000    
    475      1     61    150      -790.6           0.000    
    476      1     61    151      -790.6           0.000    
    477      1     64    152      -4.941           0.000    
    478      1     64    152      -34.59           0.000    
    479      1     65    153      -19.77           0.000    
    480      1     65    153      -34.59           0.000    
    481      1     60    153      -741.2           0.000    
    482      1     67    154      -39.53           0.000    
    483      1     67    154      -49.42           0.000    
    484      1     66    155      -27.67           0.000    
    485      1     60    155      -593.0           0.000    
    486      1     68    155      -49.42           0.000    
    487      1     63    155      -383.5           0.000    
    488      1     61    155      -24.71           0.000    
    489      1     64    155      -29.65           0.000    
    490      1     67    155      -27.67           0.000    
    491      1     61    155      -790.6           0.000    
    492      1     64    156      -652.3           0.000    
    493      1     68    156      -34.59           0.000    
    494      1     62    156      -55.34           0.000    
    495      1     62    156      -55.34           0.000    
    496      1     61    157      -19.77           0.000    
    497      1     64    158      -49.42           0.000    
    498      1     62    160      -49.42           0.000    
    499      1     59    161      -29.65           0.000    
    500      1     59    161      -29.65           0.000    
    501      1     59    162      -3.163           0.000    
    502      1     58    162      -830.2           0.000    
    503      1     63    163      -468.5           0.000    
    504      1     60    164      -9.883           0.000    
    505      1     60    164      -83.02           0.000    
    506      1     62    165      -54.36           0.000    
    507      1     59    166      -51.39           0.000    
    508      1     62    166      -19.77           0.000    
    509      1     60    166      -69.18           0.000    
    510      1     60    167      -19.77           0.000    
    511      1     59    168      -79.06           0.000    
    512      1     56    169      -385.4           0.000    
    513      1     58    169      -672.0           0.000    
    514      1     59    169      -49.42           0.000    
    515      1     62    169      -1186.           0.000    
    516      1     58    171      -29.65           0.000    
    517      1     60    174      -790.6           0.000    
    518      1    342    368      -1569.           0.000    

    518 WELLS

 DRAIN NO.  LAYER   ROW   COL     DRAIN EL.  CONDUCTANCE         IFACE           
 --------------------------------------------------------------------------------
      1      1    337    357       928.5           1000.           0.000    
      2      1    336    357       902.9           1000.           0.000    
      3      1    332    357       911.0           1000.           0.000    
[...]
   (  1,475,432)  (  1,476,431)  (  1,475,431)  (  1,475,431)  (  1,476,431)
  0  -68.79      0   60.35      0   50.87      0   42.15      0   39.19    
   (  1,476,431)  (  1,475,431)  (  1,475,431)  (  1,475,431)  (  1,475,431)
  0   31.70      0  -17.07      0  -10.07      0   10.72      0   10.86    
   (  1,475,431)  (  1,476,431)  (  1,474,432)  (  1,472,431)  (  1,472,431)
  0   10.28      0   9.111      0   6.972      0   5.476      0   3.298    
   (  1,472,431)  (  1,472,431)  (  1,472,431)  (  1,472,431)  (  1,472,431)
  0   1.969      0   1.693      0   1.586      0   1.425      0   1.186    
   (  1,473,431)  (  1,473,431)  (  1,473,431)  (  1,473,431)  (  1,473,431)
  0   1.003      0 -0.8466      1  -7716.      0 -0.1580E+05  0  0.1792E+05
   (  1,473,431)  (  1,472,431)  (  1,474,432)  (  1,475,432)  (  1,476,431)
  0  -7245.      0  -6762.      0  -4698.      0   4758.      0  -3209.    
   (  1,472,430)  (  1,472,430)  (  1,475,431)  (  1,458,431)  (  1,475,431)
  0  -2660.      0  -2520.      0  -2317.      0  -1880.      0  -1154.    
   (  1,475,431)  (  1,475,431)  (  1,475,431)  (  1,475,431)  (  1,475,431)
  0   774.4      0  -575.8      0  -647.4      0  -632.8      0  -534.6    
   (  1,474,432)  (  1,472,431)  (  1,472,431)  (  1,472,431)  (  1,472,431)
  0  -280.2      0   121.4      0  -112.8      0  -101.3      0  -89.27    
   (  1,472,431)  (  1,474,432)  (  1,473,431)  (  1,473,431)  (  1,473,431)
  0  -78.86      0  -66.05      0  -50.36      0  -44.65      0   41.30    
   (  1,473,431)  (  1,473,431)  (  1,473,431)  (  1,476,430)  (  1,472,431)
  0   38.47      0   33.50      0   28.70      0   22.86      0   16.81    
   (  1,472,431)  (  1,472,431)  (  1,472,431)  (  1,472,431)  (  1,472,431)
  0   13.93      0   10.28      0   8.546      0   8.585      0   8.255    
   (  1,472,431)  (  1,472,431)  (  1,473,431)  (  1,473,431)  (  1,473,431)
  0   7.535      0   6.749      0   5.468      0   4.531      0   3.999    
   (  1,473,431)  (  1,473,431)  (  1,473,431)  (  1,473,431)  (  1,473,431)
  0  -2.749      0  -1.983      0  -1.777      0  -1.328      0   1.003    
   (  1,472,431)  (  1,472,431)  (  1,472,431)  (  1,472,431)  (  1,471,432)
  0  0.6485      1   143.3      0  -396.9      0   343.4      0   315.6    
   (  1,474,431)  (  1,474,432)  (  1,477,430)  (  1,475,432)  (  1,475,432)
  0  -185.2      0   126.9      0   113.5      0  -109.3      0  -70.79    
   (  1,476,431)  (  1,475,431)  (  1,475,431)  (  1,476,431)  (  1,476,431)
  0   61.52      0   57.87      0   49.11      0   40.52      0   38.98    
   (  1,475,431)  (  1,475,431)  (  1,475,431)  (  1,475,431)  (  1,475,431)
  0   31.04      0  -15.66      0  -10.69      0   10.35      0   10.79    
   (  1,475,431)  (  1,474,432)  (  1,474,432)  (  1,472,431)  (  1,472,431)
  0   10.02      0   8.779      0   6.291      0   2.896      0   2.044    
   (  1,472,431)  (  1,472,431)  (  1,472,431)  (  1,472,431)  (  1,473,431)
  0   1.780      0   1.631      0   1.497      0   1.362      0   1.078    
   (  1,473,431)  (  1,473,431)  (  1,473,431)  (  1,473,431)  (  1,473,431)
  0  0.8446      1  -7716.      0 -0.1579E+05  0  0.1794E+05  0  -7260.    
   (  1,473,431)  (  1,474,432)  (  1,475,432)  (  1,476,431)  (  1,472,430)
  0  -6637.      0  -4681.      0   4706.      0  -3324.      0  -2676.    
   (  1,475,431)  (  1,475,431)  (  1,458,431)  (  1,475,431)  (  1,475,431)
  0  -2564.      0  -2425.      0  -1844.      0  -1211.      0   780.7    
   (  1,475,431)  (  1,475,431)  (  1,475,431)  (  1,475,431)  (  1,474,432)
  0  -582.2      0  -645.8      0  -633.0      0  -552.5      0  -312.7    
   (  1,472,431)  (  1,472,431)  (  1,472,431)  (  1,472,431)  (  1,472,431)
  0  -145.8      0  -115.2      0  -107.5      0  -95.65      0  -88.92    
   (  1,472,431)  (  1,473,431)  (  1,473,431)  (  1,473,431)  (  1,473,431)
  0  -79.61      0  -57.31      0  -43.54      0   41.22      0   40.20    
   (  1,473,431)  (  1,473,431)  (  1,476,430)  (  1,472,431)  (  1,472,431)
  0   35.04      0   29.73      0   24.60      0   17.70      0   14.12    
   (  1,472,431)  (  1,472,431)  (  1,472,431)  (  1,472,431)  (  1,472,431)
  0   11.48      0   8.309      0   8.605      0   8.454      0   8.032    
   (  1,472,431)  (  1,473,431)  (  1,473,431)  (  1,473,431)  (  1,473,431)
  0   6.719      0   5.360      0   4.487      0   3.722      0  -2.726    
   (  1,473,431)  (  1,473,431)  (  1,473,431)  (  1,473,431)  (  1,472,431)
  0  -2.272      0  -2.004      0  -1.716      0   1.124      0  0.6672    
   (  1,472,431)  (  1,472,431)  (  1,472,431)  (  1,471,432)  (  1,471,432)
  1   143.3      0  -428.9      0   345.5      0   311.4      0   195.2    
   (  1,474,432)  (  1,437,467)  (  1,475,432)  (  1,475,432)  (  1,475,432)
  0  -148.2      0  -122.4      0   107.3      0  -83.60      0  -64.70    
   (  1,476,431)  (  1,476,431)  (  1,475,431)  (  1,476,431)  (  1,476,431)
  0   58.52      0   50.45      0   41.59      0   38.60      0   33.27    
   (  1,475,431)  (  1,475,431)  (  1,475,431)  (  1,475,431)  (  1,475,431)
  0  -17.26      0  -10.33      0   10.39      0   10.75      0   10.28    
   (  1,474,432)  (  1,474,432)  (  1,472,431)  (  1,472,431)  (  1,472,431)
  0   9.211      0   8.198      0   6.821      0   3.599      0   1.927    
   (  1,472,431)  (  1,472,431)  (  1,472,431)  (  1,472,431)  (  1,473,431)
  0   1.627      0   1.485      0   1.374      0   1.091      0  0.8472    
   (  1,473,431)  (  1,473,431)  (  1,473,431)  (  1,473,431)  (  1,473,431)
  1  -7716.      0 -0.1581E+05  0  0.1788E+05  0   7304.      0  -6874.    
   (  1,474,432)  (  1,475,432)  (  1,476,431)  (  1,476,431)  (  1,472,430)
  0  -4693.      0   4743.      0  -3246.      0  -2668.      0  -2556.    
   (  1,475,431)  (  1,458,431)  (  1,475,431)  (  1,475,431)  (  1,475,431)
  0  -2414.      0  -1949.      0  -1207.      0   777.6      0  -560.9    
   (  1,475,431)  (  1,475,431)  (  1,475,431)  (  1,474,432)  (  1,472,431)
  0  -644.7      0  -634.6      0  -547.8      0  -292.9      0   124.1    
   (  1,472,431)  (  1,472,431)  (  1,472,431)  (  1,472,431)  (  1,474,432)
  0  -113.0      0  -101.8      0  -90.90      0  -81.48      0  -67.86    
   (  1,473,431)  (  1,473,431)  (  1,473,431)  (  1,473,431)  (  1,473,431)
  0  -50.50      0  -43.18      0   41.00      0   39.75      0   33.83    
   (  1,473,431)  (  1,476,430)  (  1,472,431)  (  1,472,431)  (  1,472,431)
  0   28.86      0   21.91      0   16.94      0   13.81      0   10.10    
   (  1,472,431)  (  1,472,431)  (  1,472,431)  (  1,472,431)  (  1,472,431)
  0   8.511      0   8.623      0   8.224      0   7.733      0   6.854    
   (  1,473,431)  (  1,473,431)  (  1,473,431)  (  1,473,431)  (  1,473,431)
  0   5.723      0   4.659      0   3.835      0  -2.692      0  -2.195    
   (  1,473,431)  (  1,473,431)  (  1,473,431)  (  1,472,431)  (  1,472,431)
  0  -1.995      0  -1.475      0  0.8785      1   143.1      0   451.1    
   (  1,472,431)  (  1,472,431)  (  1,471,432)  (  1,474,432)  (  1,457,451)
  0   354.1      0   304.7      0   193.5      0  -142.2      0  -122.0    
   (  1,475,432)  (  1,475,432)  (  1,475,432)  (  1,476,431)  (  1,476,431)
  0   104.3      0   88.33      0  -65.22      0   56.89      0   52.18    
   (  1,475,431)  (  1,475,431)  (  1,476,431)  (  1,475,431)  (  1,475,431)
  0   42.36      0   38.27      0   34.45      0   21.21      0  -10.73    
   (  1,475,431)  (  1,475,431)  (  1,475,431)  (  1,475,431)  (  1,474,432)
  0   10.78      0   10.97      0   10.21      0   9.006      0   7.741    
   (  1,472,431)  (  1,472,431)  (  1,472,431)  (  1,472,431)  (  1,472,431)
  0   6.097      0   3.541      0   2.006      0   1.719      0   1.602    
   (  1,472,431)  (  1,472,431)  (  1,473,431)  (  1,473,431)  (  1,473,431)
  0   1.391      0   1.183      0  0.8903      1  -7716.      0 -0.1581E+05
   (  1,473,431)  (  1,473,431)  (  1,473,431)  (  1,474,432)  (  1,475,432)
  0  0.1741E+05  0  0.1002E+05  0  -7094.      0   4673.      0   4494.    
   (  1,476,431)  (  1,476,431)  (  1,472,430)  (  1,458,431)  (  1,458,431)
  0  -3144.      0  -2690.      0  -2562.      0  -2406.      0  -1960.    
   (  1,475,431)  (  1,475,431)  (  1,475,431)  (  1,475,431)  (  1,475,431)
  0  -1140.      0   767.0      0  -588.9      0  -643.5      0  -634.8    
   (  1,475,431)  (  1,474,432)  (  1,472,431)  (  1,472,431)  (  1,472,431)
  0  -539.1      0  -283.9      0   123.9      0  -113.1      0  -102.4    
   (  1,472,431)  (  1,472,431)  (  1,474,432)  (  1,473,431)  (  1,473,431)
  0  -93.42      0  -86.26      0  -67.38      0  -53.64      0  -43.51    
   (  1,473,431)  (  1,473,431)  (  1,473,431)  (  1,473,431)  (  1,476,430)
  0   41.16      0   39.89      0   35.32      0   31.24      0   26.35    
   (  1,472,431)  (  1,472,431)  (  1,472,431)  (  1,472,431)  (  1,472,431)
  0   17.73      0   14.09      0   11.25      0   8.332      0   8.583    
   (  1,472,431)  (  1,472,431)  (  1,472,431)  (  1,473,431)  (  1,473,431)
  0   8.334      0   8.121      0   7.310      0   5.803      0   4.494    
   (  1,473,431)  (  1,473,431)  (  1,473,431)  (  1,473,431)  (  1,473,431)
  0   4.050      0  -2.909      0  -2.192      0  -1.907      0  -1.650    
   (  1,473,431)  (  1,472,431)  (  1,472,431)  (  1,472,431)  (  1,472,431)
  0   1.083      0  0.7577      1   143.2      0   553.2      0   343.4    
   (  1,471,432)  (  1,471,432)  (  1,474,432)  (  1,438,464)  (  1,475,432)
  0   314.7      0  -228.4      0  -152.2      0   126.0      0  -117.8    
   (  1,475,432)  (  1,476,431)  (  1,476,431)  (  1,475,431)  (  1,476,431)
  0  -107.2      0   64.12      0   60.02      0   48.91      0   41.89    
   (  1,476,431)  (  1,475,431)  (  1,475,431)  (  1,475,431)  (  1,475,431)
  0   39.40      0   29.43      0  -17.02      0  -11.27      0   10.58    
   (  1,475,431)  (  1,475,431)  (  1,474,432)  (  1,474,432)  (  1,472,431)
  0   11.11      0   10.30      0   8.351      0   5.927      0   4.307    
   (  1,472,431)  (  1,472,431)  (  1,472,431)  (  1,472,431)  (  1,472,431)
  0   2.862      0   2.010      0   1.800      0   1.628      0   1.424    
   (  1,472,431)  (  1,473,431)  (  1,473,431)  (  1,473,431)  (  1,473,431)
  0   1.191      0  0.9166      1  -7716.      0 -0.1578E+05  0  0.1772E+05
   (  1,473,431)  (  1,473,431)  (  1,474,432)  (  1,475,432)  (  1,476,431)
  0   9053.      0  -7066.      0   4561.      0   4560.      0  -2980.    
   (  1,476,431)  (  1,472,430)  (  1,458,431)  (  1,458,431)  (  1,475,431)
  0  -2686.      0  -2545.      0  -2346.      0  -1904.      0  -1212.    
   (  1,475,431)  (  1,475,431)  (  1,475,431)  (  1,475,431)  (  1,475,431)
  0   788.5      0  -558.2      0  -640.0      0  -635.2      0  -571.7    
   (  1,474,432)  (  1,472,431)  (  1,472,431)  (  1,472,431)  (  1,472,431)
  0  -318.7      0   126.3      0  -113.4      0  -103.6      0  -94.33    
   (  1,472,431)  (  1,474,432)  (  1,473,431)  (  1,473,431)  (  1,473,431)
  0  -85.21      0  -77.12      0  -60.60      0  -44.34      0   41.36    
   (  1,473,431)  (  1,473,431)  (  1,473,431)  (  1,476,430)  (  1,472,431)
  0   40.68      0   36.21      0   32.62      0   27.07      0   17.56    
   (  1,472,431)  (  1,472,431)  (  1,472,431)  (  1,472,431)  (  1,472,431)
  0   14.19      0   10.50      0   8.345      0   8.565      0   8.343    
   (  1,472,431)  (  1,472,431)  (  1,473,431)  (  1,473,431)  (  1,473,431)
  0   8.113      0   7.173      0   5.667      0   4.679      0   3.970    
   (  1,473,431)  (  1,473,431)  (  1,473,431)  (  1,473,431)  (  1,473,431)
  0  -2.932      0  -2.070      0  -1.874      0  -1.537      0   1.071    
   (  1,472,431)  (  1,472,431)  (  1,472,431)  (  1,472,431)  (  1,471,432)
  0  0.6591      1   143.2      0  -387.2      0   344.9      0   315.4    
   (  1,471,432)  (  1,474,432)  (  1,477,430)  (  1,475,432)  (  1,475,432)
  0  -225.7      0  -143.3      0   123.2      0   107.6      0  -110.6    
   (  1,476,431)  (  1,476,431)  (  1,475,431)  (  1,475,431)  (  1,476,431)
  0   62.27      0   60.20      0   49.08      0   41.20      0   38.90    
   (  1,475,431)  (  1,475,431)  (  1,475,431)  (  1,475,431)  (  1,475,431)
  0   33.50      0  -18.40      0  -11.02      0   10.76      0   10.94    
   (  1,475,431)  (  1,474,432)  (  1,474,432)  (  1,472,431)  (  1,472,431)
  0   10.51      0   8.985      0   7.769      0   6.095      0   3.813    
   (  1,472,431)  (  1,472,431)  (  1,472,431)  (  1,472,431)  (  1,472,431)
  0   1.960      0   1.630      0   1.506      0   1.372      0   1.129    
   (  1,473,431)  (  1,473,431)  (  1,473,431)  (  1,473,431)  (  1,473,431)
  0  0.8923      1  -7716.      0 -0.1576E+05  0  0.1469E+05  0  0.1253E+05
   (  1,473,431)  (  1,474,432)  (  1,475,432)  (  1,476,431)  (  1,476,431)
  0  -7119.      0  -5457.      0   4855.      0  -3364.      0  -2669.    
   (  1,472,430)  (  1,475,431)  (  1,458,431)  (  1,475,431)  (  1,475,431)
  0  -2580.      0  -2431.      0  -1872.      0  -1173.      0   754.4    
   (  1,475,431)  (  1,475,431)  (  1,475,431)  (  1,475,431)  (  1,474,432)
  0  -595.7      0  -645.9      0  -630.0      0  -568.0      0  -323.0    
   (  1,472,431)  (  1,472,431)  (  1,472,431)  (  1,472,431)  (  1,472,431)
  0   122.0      0  -112.4      0  -103.1      0  -92.45      0  -85.58    
   (  1,474,432)  (  1,473,431)  (  1,473,431)  (  1,473,431)  (  1,473,431)
  0  -66.39      0  -55.01      0  -43.82      0   41.41      0   39.58    
   (  1,473,431)  (  1,473,431)  (  1,476,430)  (  1,472,431)  (  1,472,431)
  0   34.71      0   29.73      0   24.97      0   16.66      0   13.31    
   (  1,472,431)  (  1,472,431)  (  1,472,431)  (  1,472,431)  (  1,472,431)
  0   9.877      0   8.475      0   8.552      0   8.361      0   8.055    
   (  1,472,431)  (  1,473,431)  (  1,473,431)  (  1,473,431)  (  1,473,431)
  0   6.488      0   5.011      0   4.172      0   3.411      0  -2.684    
   (  1,473,431)  (  1,473,431)  (  1,473,431)  (  1,473,431)  (  1,472,431)
  0  -2.174      0  -1.755      0  -1.546      0   1.098      0  0.6484    
   (  1,472,431)  (  1,472,431)  (  1,472,431)  (  1,471,432)  (  1,474,431)
  1   143.3      0  -388.5      0   349.3      0  -260.9      0  -168.3    
   (  1,474,432)  (  1,477,430)  (  1,475,432)  (  1,476,431)  (  1,476,431)
  0   126.3      0   115.0      0   97.64      0  -85.29      0   60.35    
   (  1,475,431)  (  1,475,431)  (  1,475,431)  (  1,476,431)  (  1,475,431)
  0   55.90      0   47.44      0   41.83      0   38.07      0   32.47    
   (  1,475,431)  (  1,475,431)  (  1,475,431)  (  1,475,431)  (  1,475,431)
  0  -17.63      0  -10.60      0   10.59      0   10.93      0   10.16    
   (  1,474,432)  (  1,474,432)  (  1,472,431)  (  1,472,431)  (  1,472,431)
  0   8.465      0   6.409      0   5.202      0   2.638      0   1.792    
   (  1,472,431)  (  1,472,431)  (  1,472,431)  (  1,472,431)  (  1,473,431)
  0   1.570      0   1.458      0   1.330      0   1.072      0 -0.8341    
   (  1,473,431)  (  1,473,431)  (  1,473,431)  (  1,473,431)  (  1,472,431)
  1  -7716.      0 -0.1584E+05  0  0.1750E+05  0   8051.      0  -6844.    
   (  1,474,432)  (  1,475,432)  (  1,476,431)  (  1,476,431)  (  1,475,431)
  0  -4891.      0   4795.      0  -3114.      0  -2701.      0  -2544.    
   (  1,475,431)  (  1,458,431)  (  1,475,431)  (  1,475,431)  (  1,475,431)
  0  -2406.      0  -1938.      0  -1164.      0   766.5      0  -597.0    
   (  1,475,431)  (  1,475,431)  (  1,475,431)  (  1,474,432)  (  1,472,431)
  0  -643.1      0  -632.9      0  -559.6      0  -356.3      0  -153.5    
   (  1,472,431)  (  1,472,431)  (  1,472,431)  (  1,472,431)  (  1,472,431)
  0  -116.2      0  -108.0      0  -96.11      0  -84.39      0  -68.35    
   (  1,473,431)  (  1,473,431)  (  1,473,431)  (  1,473,431)  (  1,473,431)
  0  -59.07      0  -44.28      0   41.21      0   40.71      0   35.09    
   (  1,473,431)  (  1,476,430)  (  1,472,431)  (  1,472,431)  (  1,472,431)
  0   29.05      0   21.95      0   16.18      0   14.06      0   10.82    
   (  1,472,431)  (  1,472,431)  (  1,472,431)  (  1,472,431)  (  1,472,431)
  0   8.368      0   8.607      0   8.303      0   7.354      0   6.408    
   (  1,473,431)  (  1,473,431)  (  1,473,431)  (  1,473,431)  (  1,473,431)
  0   5.082      0   4.367      0   3.705      0  -2.809      0  -2.308    
   (  1,473,431)  (  1,473,431)  (  1,473,431)  (  1,472,431)  (  1,472,431)
  0  -1.975      0  -1.653      0  -1.324      0  0.7577    
   (  1,472,431)  (  1,472,431)  (  1,472,431)  (  1,471,432)



 OUTPUT CONTROL FOR STRESS PERIOD    1   TIME STEP    1
    SAVE HEAD FOR ALL LAYERS
    SAVE DRAWDOWN FOR ALL LAYERS
    SAVE BUDGET
    PRINT BUDGET
 UBUDSV SAVING "   CONSTANT HEAD" ON UNIT 50 AT TIME STEP  1, STRESS PERIOD    1
 UBUDSV SAVING "FLOW RIGHT FACE " ON UNIT 50 AT TIME STEP  1, STRESS PERIOD    1
 UBUDSV SAVING "FLOW FRONT FACE " ON UNIT 50 AT TIME STEP  1, STRESS PERIOD    1
 UBUDSV SAVING "           WELLS" ON UNIT 50 AT TIME STEP  1, STRESS PERIOD    1
 UBUDSV SAVING "          DRAINS" ON UNIT 50 AT TIME STEP  1, STRESS PERIOD    1
 UBUDSV SAVING "        RECHARGE" ON UNIT 50 AT TIME STEP  1, STRESS PERIOD    1

         ****FAILED TO MEET SOLVER CONVERGENCE CRITERIA IN TIME STEP    1 OF STRESS PERIOD    1****

 HEAD WILL BE SAVED ON UNIT   30 AT END OF TIME STEP    1, STRESS PERIOD    1

 DRAWDOWN WILL BE SAVED ON UNIT   31 AT END OF TIME STEP    1, STRESS PERIOD    1
1
  VOLUMETRIC BUDGET FOR ENTIRE MODEL AT END OF TIME STEP    1, STRESS PERIOD   1
  ------------------------------------------------------------------------------

     CUMULATIVE VOLUMES      L**3       RATES FOR THIS TIME STEP      L**3/T
     ------------------                 ------------------------

           IN:                                      IN:
           ---                                      ---
             STORAGE =           0.0000               STORAGE =           0.0000
       CONSTANT HEAD =       49558.0039         CONSTANT HEAD =       49558.0039
               WELLS =           0.0000                 WELLS =           0.0000
              DRAINS =           0.0000                DRAINS =           0.0000
            RECHARGE =      426784.1875              RECHARGE =      426784.1875

            TOTAL IN =      476342.1875              TOTAL IN =      476342.1875

          OUT:                                     OUT:
          ----                                     ----
             STORAGE =           0.0000               STORAGE =           0.0000
       CONSTANT HEAD =         821.9825         CONSTANT HEAD =         821.9825
               WELLS =      246990.1250                 WELLS =      246990.1250
              DRAINS =      228533.6250                DRAINS =      228533.6250
            RECHARGE =           0.0000              RECHARGE =           0.0000

           TOTAL OUT =      476345.7500             TOTAL OUT =      476345.7500

            IN - OUT =          -3.5625              IN - OUT =          -3.5625

 PERCENT DISCREPANCY =          -0.00     PERCENT DISCREPANCY =          -0.00






         TIME SUMMARY AT END OF TIME STEP    1 IN STRESS PERIOD    1
                    SECONDS     MINUTES      HOURS       DAYS        YEARS
                    -----------------------------------------------------------
   TIME STEP LENGTH  86400.      1440.0      24.000      1.0000     2.73785E-03
 STRESS PERIOD TIME  86400.      1440.0      24.000      1.0000     2.73785E-03
         TOTAL TIME  86400.      1440.0      24.000      1.0000     2.73785E-03
1
 FAILURE TO MEET SOLVER CONVERGENCE CRITERIA
 BUDGET PERCENT DISCREPANCY IS   -0.0007
 STOPPING SIMULATION

 Run end date and time (yyyy/mm/dd hh:mm:ss): 2022/12/22 18:48:22
 Elapsed run time:  1 Minutes, 29.923 Seconds

