
 ========== TRANSLATION TO MODFLOW2005 ==========



 >>>>> Testing Layer Elevations <<<<<
     0 ERRORS,   0 WARNINGS

 >>>>> Translating LAYER-PROPERTY-FLOW Package <<<<<

 Warning -- When using the MODFLOW2000 LPF (or MODFLOW-NWT UPW) Package, be sure that S in the GV database represents Specific Storage
     This is different from the MODFLOW BCF Package where Storage is defined.

 >>>>> Translating DRAIN Package <<<<<


 >>>>> Translating WELL 1 Package <<<<<


 >>>>> Translating Time-Variant Specified Head (CHD) Package <<<<<
     0 ERRORS,   0 WARNINGS

 >>>>> Translating RECHARGE Package <<<<<


 >>>>> Translating ZONE Package <<<<<


 >>>>> Translating BASIC Package <<<<<

 Warning -- 2603 Starting heads in layer 1 are below the bottom of the layer.  These cells will start out dry if this is an unconfined layer
     0 ERRORS,   1 WARNINGS

 >>>>> Translating Discretization Package <<<<<
     0 ERRORS,   0 WARNINGS

 ========== TRANSLATION COMPLETE! ==========